-- Copyright (C) 1991-2013 Altera Corporation
-- Your use of Altera Corporation's design tools, logic functions 
-- and other software and tools, and its AMPP partner logic 
-- functions, and any output files from any of the foregoing 
-- (including device programming or simulation files), and any 
-- associated documentation or information are expressly subject 
-- to the terms and conditions of the Altera Program License 
-- Subscription Agreement, Altera MegaCore Function License 
-- Agreement, or other applicable license agreement, including, 
-- without limitation, that your use is for the sole purpose of 
-- programming logic devices manufactured by Altera and sold by 
-- Altera or its authorized distributors.  Please refer to the 
-- applicable agreement for further details.

-- Quartus II generated Memory Initialization File (.mif)

WIDTH=8;
DEPTH=16384;

ADDRESS_RADIX=HEX;
DATA_RADIX=HEX;

CONTENT BEGIN    
    0   :    3;
    1   :    F;
    2   :   1F;
    3   :   1F;
    4   :   1C;
    5   :   24;
    6   :   26;
    7   :   66;
    8   :    0;
    9   :    0;
    A   :    0;
    B   :    0;
    C   :   1F;
    D   :   3F;
    E   :   3F;
    F   :   7F;
   10   :   E0;
   11   :   C0;
   12   :   80;
   13   :   FC;
   14   :   80;
   15   :   C0;
   16   :    0;
   17   :   20;
   18   :    0;
   19   :   20;
   1A   :   60;
   1B   :    0;
   1C   :   F0;
   1D   :   FC;
   1E   :   FE;
   1F   :   FE;
   20   :   60;
   21   :   70;
   22   :   18;
   23   :    7;
   24   :    F;
   25   :   1F;
   26   :   3F;
   27   :   7F;
   28   :   7F;
   29   :   7F;
   2A   :   1F;
   2B   :    7;
   2C   :    0;
   2D   :   1E;
   2E   :   3F;
   2F   :   7F;
   30   :   FC;
   31   :   7C;
   32   :    0;
   33   :    0;
   34   :   E0;
   35   :   F0;
   36   :   F8;
   37   :   F8;
   38   :   FC;
   39   :   FC;
   3A   :   F8;
   3B   :   C0;
   3C   :   C2;
   3D   :   67;
   3E   :   2F;
   3F   :   37;
   40   :   7F;
   41   :   7F;
   42   :   FF;
   43   :   FF;
   44   :    7;
   45   :    7;
   46   :    F;
   47   :    F;
   48   :   7F;
   49   :   7E;
   4A   :   FC;
   4B   :   F0;
   4C   :   F8;
   4D   :   F8;
   4E   :   F0;
   4F   :   70;
   50   :   FD;
   51   :   FE;
   52   :   B4;
   53   :   F8;
   54   :   F8;
   55   :   F9;
   56   :   FB;
   57   :   FF;
   58   :   37;
   59   :   36;
   5A   :   5C;
   5B   :    0;
   5C   :    0;
   5D   :    1;
   5E   :    3;
   5F   :   1F;
   60   :   1F;
   61   :   3F;
   62   :   FF;
   63   :   FF;
   64   :   FC;
   65   :   70;
   66   :   70;
   67   :   38;
   68   :    8;
   69   :   24;
   6A   :   E3;
   6B   :   F0;
   6C   :   F8;
   6D   :   70;
   6E   :   70;
   6F   :   38;
   70   :   FF;
   71   :   FF;
   72   :   FF;
   73   :   1F;
   74   :    0;
   75   :    0;
   76   :    0;
   77   :    0;
   78   :   1F;
   79   :   1F;
   7A   :   1F;
   7B   :   1F;
   7C   :    0;
   7D   :    0;
   7E   :    0;
   7F   :    0;
   80   :    0;
   81   :    0;
   82   :    1;
   83   :    7;
   84   :    F;
   85   :    F;
   86   :    E;
   87   :   12;
   88   :    0;
   89   :    0;
   8A   :    0;
   8B   :    0;
   8C   :    0;
   8D   :    0;
   8E   :    F;
   8F   :   1F;
   90   :    0;
   91   :    0;
   92   :   F0;
   93   :   E0;
   94   :   C0;
   95   :   FE;
   96   :   40;
   97   :   60;
   98   :    0;
   99   :    0;
   9A   :    0;
   9B   :   10;
   9C   :   30;
   9D   :    0;
   9E   :   F8;
   9F   :   FE;
   A0   :   13;
   A1   :   33;
   A2   :   30;
   A3   :   18;
   A4   :    4;
   A5   :    F;
   A6   :   1F;
   A7   :   1F;
   A8   :   1F;
   A9   :   3F;
   AA   :   3F;
   AB   :   1F;
   AC   :    7;
   AD   :    8;
   AE   :   17;
   AF   :   17;
   B0   :    0;
   B1   :   10;
   B2   :   7E;
   B3   :   3E;
   B4   :    0;
   B5   :    0;
   B6   :   C0;
   B7   :   E0;
   B8   :   FF;
   B9   :   FF;
   BA   :   FE;
   BB   :   FE;
   BC   :   FC;
   BD   :   E0;
   BE   :   40;
   BF   :   A0;
   C0   :   3F;
   C1   :   3F;
   C2   :   3F;
   C3   :   1F;
   C4   :   1F;
   C5   :   1F;
   C6   :   1F;
   C7   :   1F;
   C8   :   37;
   C9   :   27;
   CA   :   23;
   CB   :    3;
   CC   :    1;
   CD   :    0;
   CE   :    0;
   CF   :    0;
   D0   :   F0;
   D1   :   F0;
   D2   :   F0;
   D3   :   F8;
   D4   :   F8;
   D5   :   F8;
   D6   :   F8;
   D7   :   F8;
   D8   :   CC;
   D9   :   FF;
   DA   :   FF;
   DB   :   FF;
   DC   :   FF;
   DD   :   70;
   DE   :    0;
   DF   :    8;
   E0   :   FF;
   E1   :   FF;
   E2   :   FF;
   E3   :   FE;
   E4   :   F0;
   E5   :   C0;
   E6   :   80;
   E7   :    0;
   E8   :   F0;
   E9   :   F0;
   EA   :   F0;
   EB   :   F0;
   EC   :   F0;
   ED   :   C0;
   EE   :   80;
   EF   :    0;
   F0   :   FC;
   F1   :   FC;
   F2   :   F8;
   F3   :   78;
   F4   :   78;
   F5   :   78;
   F6   :   7E;
   F7   :   7E;
   F8   :   10;
   F9   :   60;
   FA   :   80;
   FB   :    0;
   FC   :   78;
   FD   :   78;
   FE   :   7E;
   FF   :   7E;
  100   :    0;
  101   :    3;
  102   :    F;
  103   :   1F;
  104   :   1F;
  105   :   1C;
  106   :   24;
  107   :   26;
  108   :    0;
  109   :    0;
  10A   :    0;
  10B   :    0;
  10C   :    0;
  10D   :   1F;
  10E   :   3F;
  10F   :   3F;
  110   :    0;
  111   :   E0;
  112   :   C0;
  113   :   80;
  114   :   FC;
  115   :   80;
  116   :   C0;
  117   :    0;
  118   :    0;
  119   :    0;
  11A   :   20;
  11B   :   60;
  11C   :    0;
  11D   :   F0;
  11E   :   FC;
  11F   :   FE;
  120   :   66;
  121   :   60;
  122   :   30;
  123   :   18;
  124   :    F;
  125   :   1F;
  126   :   3F;
  127   :   3F;
  128   :   7F;
  129   :   7F;
  12A   :   3F;
  12B   :   1F;
  12C   :    0;
  12D   :   16;
  12E   :   2F;
  12F   :   2F;
  130   :   20;
  131   :   FC;
  132   :   7C;
  133   :    0;
  134   :    0;
  135   :   E0;
  136   :   E0;
  137   :   F0;
  138   :   FE;
  139   :   FC;
  13A   :   FC;
  13B   :   F8;
  13C   :   C0;
  13D   :   60;
  13E   :   20;
  13F   :   30;
  140   :   3F;
  141   :   3F;
  142   :   3F;
  143   :   3F;
  144   :   3F;
  145   :   3F;
  146   :   3F;
  147   :   1F;
  148   :   2F;
  149   :   2F;
  14A   :   2F;
  14B   :    F;
  14C   :    7;
  14D   :    3;
  14E   :    0;
  14F   :    0;
  150   :   F0;
  151   :   90;
  152   :    0;
  153   :    8;
  154   :    C;
  155   :   1C;
  156   :   FC;
  157   :   F8;
  158   :   10;
  159   :   F0;
  15A   :   F0;
  15B   :   F0;
  15C   :   F0;
  15D   :   E0;
  15E   :   C0;
  15F   :   E0;
  160   :    F;
  161   :    F;
  162   :    7;
  163   :    7;
  164   :    7;
  165   :    F;
  166   :    F;
  167   :    3;
  168   :    1;
  169   :    3;
  16A   :    1;
  16B   :    4;
  16C   :    7;
  16D   :    F;
  16E   :    F;
  16F   :    3;
  170   :   F8;
  171   :   F0;
  172   :   E0;
  173   :   F0;
  174   :   B0;
  175   :   80;
  176   :   E0;
  177   :   E0;
  178   :   F8;
  179   :   F0;
  17A   :   E0;
  17B   :   70;
  17C   :   B0;
  17D   :   80;
  17E   :   E0;
  17F   :   E0;
  180   :    3;
  181   :   3F;
  182   :   7F;
  183   :   19;
  184   :    9;
  185   :    9;
  186   :   28;
  187   :   5C;
  188   :    0;
  189   :   30;
  18A   :   70;
  18B   :   7F;
  18C   :   FF;
  18D   :   FF;
  18E   :   F7;
  18F   :   F3;
  190   :   F8;
  191   :   E0;
  192   :   E0;
  193   :   FC;
  194   :   26;
  195   :   30;
  196   :   80;
  197   :   10;
  198   :    0;
  199   :   18;
  19A   :   10;
  19B   :    0;
  19C   :   F8;
  19D   :   F8;
  19E   :   FE;
  19F   :   FF;
  1A0   :   3E;
  1A1   :   1E;
  1A2   :   3F;
  1A3   :   38;
  1A4   :   30;
  1A5   :   30;
  1A6   :    0;
  1A7   :   3A;
  1A8   :   E7;
  1A9   :    F;
  1AA   :    F;
  1AB   :   1F;
  1AC   :   1F;
  1AD   :   1F;
  1AE   :    F;
  1AF   :    7;
  1B0   :   78;
  1B1   :   1E;
  1B2   :   80;
  1B3   :   FE;
  1B4   :   7E;
  1B5   :   7E;
  1B6   :   7F;
  1B7   :   7F;
  1B8   :   FF;
  1B9   :   FE;
  1BA   :   FC;
  1BB   :   C6;
  1BC   :   8E;
  1BD   :   EE;
  1BE   :   FF;
  1BF   :   FF;
  1C0   :   3C;
  1C1   :   3F;
  1C2   :   1F;
  1C3   :    F;
  1C4   :    7;
  1C5   :   3F;
  1C6   :   21;
  1C7   :   20;
  1C8   :    3;
  1C9   :    0;
  1CA   :    0;
  1CB   :    E;
  1CC   :    7;
  1CD   :   3F;
  1CE   :   3F;
  1CF   :   3F;
  1D0   :   FF;
  1D1   :   FF;
  1D2   :   FF;
  1D3   :   FE;
  1D4   :   FE;
  1D5   :   FE;
  1D6   :   FC;
  1D7   :   70;
  1D8   :   FF;
  1D9   :   7F;
  1DA   :   3F;
  1DB   :    E;
  1DC   :   C0;
  1DD   :   C0;
  1DE   :   E0;
  1DF   :   E0;
  1E0   :    F;
  1E1   :   9F;
  1E2   :   CF;
  1E3   :   FF;
  1E4   :   7F;
  1E5   :   3F;
  1E6   :   1E;
  1E7   :    E;
  1E8   :    0;
  1E9   :   80;
  1EA   :   C8;
  1EB   :   FE;
  1EC   :   7F;
  1ED   :   3F;
  1EE   :   1E;
  1EF   :    E;
  1F0   :   20;
  1F1   :   C0;
  1F2   :   80;
  1F3   :   80;
  1F4   :    0;
  1F5   :    0;
  1F6   :    0;
  1F7   :    0;
  1F8   :   E0;
  1F9   :    0;
  1FA   :    0;
  1FB   :    0;
  1FC   :    0;
  1FD   :    0;
  1FE   :    0;
  1FF   :    0;
  200   :    0;
  201   :    0;
  202   :    3;
  203   :    F;
  204   :   1F;
  205   :   1F;
  206   :   1C;
  207   :   24;
  208   :    0;
  209   :    0;
  20A   :    0;
  20B   :    0;
  20C   :    0;
  20D   :    0;
  20E   :   1F;
  20F   :   3F;
  210   :    0;
  211   :    4;
  212   :   E6;
  213   :   E0;
  214   :   FF;
  215   :   FF;
  216   :   8F;
  217   :   83;
  218   :    E;
  219   :   1F;
  21A   :   1F;
  21B   :   1F;
  21C   :   1F;
  21D   :    3;
  21E   :   FF;
  21F   :   FF;
  220   :   26;
  221   :   26;
  222   :   60;
  223   :   78;
  224   :   18;
  225   :    F;
  226   :   7F;
  227   :   FF;
  228   :   3F;
  229   :   3F;
  22A   :   7F;
  22B   :   7F;
  22C   :   1F;
  22D   :    0;
  22E   :   7E;
  22F   :   FF;
  230   :    1;
  231   :   21;
  232   :   FE;
  233   :   7A;
  234   :    6;
  235   :   FE;
  236   :   FC;
  237   :   FC;
  238   :   FF;
  239   :   FF;
  23A   :   FE;
  23B   :   FE;
  23C   :   FE;
  23D   :   DE;
  23E   :   5C;
  23F   :   6C;
  240   :   FF;
  241   :   CF;
  242   :   87;
  243   :    7;
  244   :    7;
  245   :    F;
  246   :   1F;
  247   :   1F;
  248   :   FF;
  249   :   FF;
  24A   :   FE;
  24B   :   FC;
  24C   :   F8;
  24D   :   B0;
  24E   :   60;
  24F   :    0;
  250   :   F8;
  251   :   F8;
  252   :   F0;
  253   :   B8;
  254   :   F8;
  255   :   F9;
  256   :   FB;
  257   :   FF;
  258   :   28;
  259   :   30;
  25A   :   18;
  25B   :   40;
  25C   :    0;
  25D   :    1;
  25E   :    3;
  25F   :    F;
  260   :   1F;
  261   :   FF;
  262   :   FF;
  263   :   FF;
  264   :   FF;
  265   :   FE;
  266   :   C0;
  267   :   80;
  268   :   10;
  269   :   EC;
  26A   :   E3;
  26B   :   E0;
  26C   :   E0;
  26D   :   E0;
  26E   :   C0;
  26F   :   80;
  270   :   FF;
  271   :   FF;
  272   :   FF;
  273   :   3F;
  274   :    0;
  275   :    0;
  276   :    0;
  277   :    0;
  278   :    F;
  279   :    F;
  27A   :    F;
  27B   :    F;
  27C   :    0;
  27D   :    0;
  27E   :    0;
  27F   :    0;
  280   :   13;
  281   :   33;
  282   :   30;
  283   :   18;
  284   :    4;
  285   :    F;
  286   :   1F;
  287   :   1F;
  288   :   1F;
  289   :   3F;
  28A   :   3F;
  28B   :   1F;
  28C   :    7;
  28D   :    9;
  28E   :   13;
  28F   :   17;
  290   :    0;
  291   :   10;
  292   :   7E;
  293   :   30;
  294   :   E0;
  295   :   F0;
  296   :   F0;
  297   :   E0;
  298   :   FF;
  299   :   FF;
  29A   :   FE;
  29B   :   FF;
  29C   :   FE;
  29D   :   FC;
  29E   :   F8;
  29F   :   E0;
  2A0   :   1F;
  2A1   :   1F;
  2A2   :    F;
  2A3   :    F;
  2A4   :    F;
  2A5   :   1F;
  2A6   :   1F;
  2A7   :   1F;
  2A8   :   17;
  2A9   :   17;
  2AA   :    3;
  2AB   :    0;
  2AC   :    0;
  2AD   :    0;
  2AE   :    0;
  2AF   :    0;
  2B0   :   F0;
  2B1   :   F0;
  2B2   :   F8;
  2B3   :   F8;
  2B4   :   B8;
  2B5   :   F8;
  2B6   :   F8;
  2B7   :   F8;
  2B8   :   D0;
  2B9   :   90;
  2BA   :   18;
  2BB   :    8;
  2BC   :   40;
  2BD   :    0;
  2BE   :    0;
  2BF   :    0;
  2C0   :   3F;
  2C1   :   FF;
  2C2   :   FF;
  2C3   :   FF;
  2C4   :   F6;
  2C5   :   C6;
  2C6   :   84;
  2C7   :    0;
  2C8   :   30;
  2C9   :   F0;
  2CA   :   F0;
  2CB   :   F1;
  2CC   :   F6;
  2CD   :   C6;
  2CE   :   84;
  2CF   :    0;
  2D0   :   F0;
  2D1   :   E0;
  2D2   :   80;
  2D3   :    0;
  2D4   :    0;
  2D5   :    0;
  2D6   :    0;
  2D7   :    0;
  2D8   :    0;
  2D9   :    0;
  2DA   :    0;
  2DB   :    0;
  2DC   :    0;
  2DD   :    0;
  2DE   :    0;
  2DF   :    0;
  2E0   :   1F;
  2E1   :   1F;
  2E2   :   3F;
  2E3   :   3F;
  2E4   :   1F;
  2E5   :    F;
  2E6   :    F;
  2E7   :   1F;
  2E8   :   1F;
  2E9   :   1F;
  2EA   :   3F;
  2EB   :   3E;
  2EC   :   7C;
  2ED   :   78;
  2EE   :   F0;
  2EF   :   E0;
  2F0   :   F0;
  2F1   :   F0;
  2F2   :   F8;
  2F3   :   F8;
  2F4   :   B8;
  2F5   :   F8;
  2F6   :   F8;
  2F7   :   F0;
  2F8   :   B0;
  2F9   :   90;
  2FA   :   18;
  2FB   :    8;
  2FC   :   40;
  2FD   :    0;
  2FE   :    0;
  2FF   :    0;
  300   :   E0;
  301   :   F0;
  302   :   F0;
  303   :   F0;
  304   :   F0;
  305   :   F0;
  306   :   F8;
  307   :   F0;
  308   :   C0;
  309   :   E0;
  30A   :   FC;
  30B   :   FE;
  30C   :   FF;
  30D   :   7F;
  30E   :    3;
  30F   :    0;
  310   :   1F;
  311   :   1F;
  312   :   1F;
  313   :   3F;
  314   :   3E;
  315   :   3C;
  316   :   38;
  317   :   18;
  318   :    0;
  319   :    0;
  31A   :   10;
  31B   :   38;
  31C   :   3E;
  31D   :   3C;
  31E   :   38;
  31F   :   18;
  320   :    0;
  321   :    3;
  322   :    7;
  323   :    7;
  324   :    A;
  325   :    B;
  326   :    C;
  327   :    0;
  328   :    0;
  329   :    0;
  32A   :    0;
  32B   :    7;
  32C   :    F;
  32D   :    F;
  32E   :    F;
  32F   :    3;
  330   :    0;
  331   :   E0;
  332   :   FC;
  333   :   20;
  334   :   20;
  335   :   10;
  336   :   3C;
  337   :    0;
  338   :    0;
  339   :    0;
  33A   :    0;
  33B   :   F0;
  33C   :   FC;
  33D   :   FE;
  33E   :   FC;
  33F   :   F8;
  340   :    7;
  341   :    7;
  342   :    7;
  343   :   1F;
  344   :   1F;
  345   :   3E;
  346   :   21;
  347   :    1;
  348   :    7;
  349   :    F;
  34A   :   1B;
  34B   :   18;
  34C   :   10;
  34D   :   30;
  34E   :   21;
  34F   :    1;
  350   :   E0;
  351   :   E0;
  352   :   E0;
  353   :   F0;
  354   :   F0;
  355   :   E0;
  356   :   C0;
  357   :   E0;
  358   :   A8;
  359   :   FC;
  35A   :   F8;
  35B   :    0;
  35C   :    0;
  35D   :    0;
  35E   :   C0;
  35F   :   E0;
  360   :    7;
  361   :    F;
  362   :    E;
  363   :   14;
  364   :   16;
  365   :   18;
  366   :    0;
  367   :   3F;
  368   :    0;
  369   :    0;
  36A   :    F;
  36B   :   1F;
  36C   :   1F;
  36D   :   1F;
  36E   :    7;
  36F   :   3C;
  370   :   C0;
  371   :   F8;
  372   :   40;
  373   :   40;
  374   :   20;
  375   :   78;
  376   :    0;
  377   :   C0;
  378   :    0;
  379   :    0;
  37A   :   E0;
  37B   :   F8;
  37C   :   FC;
  37D   :   F8;
  37E   :   F0;
  37F   :   C0;
  380   :   3F;
  381   :    E;
  382   :    F;
  383   :   1F;
  384   :   3F;
  385   :   7C;
  386   :   70;
  387   :   38;
  388   :   FC;
  389   :   ED;
  38A   :   C0;
  38B   :    0;
  38C   :    0;
  38D   :   60;
  38E   :   70;
  38F   :   38;
  390   :   F0;
  391   :   F8;
  392   :   E4;
  393   :   FC;
  394   :   FC;
  395   :   7C;
  396   :    0;
  397   :    0;
  398   :   7E;
  399   :   1E;
  39A   :    4;
  39B   :    C;
  39C   :    C;
  39D   :    C;
  39E   :    0;
  39F   :    0;
  3A0   :    7;
  3A1   :    F;
  3A2   :    E;
  3A3   :   14;
  3A4   :   16;
  3A5   :   18;
  3A6   :    0;
  3A7   :    F;
  3A8   :    0;
  3A9   :    0;
  3AA   :    F;
  3AB   :   1F;
  3AC   :   1F;
  3AD   :   1F;
  3AE   :    7;
  3AF   :    D;
  3B0   :   1F;
  3B1   :   1F;
  3B2   :   1F;
  3B3   :   1C;
  3B4   :    C;
  3B5   :    7;
  3B6   :    7;
  3B7   :    7;
  3B8   :   1E;
  3B9   :   1C;
  3BA   :   1E;
  3BB   :    F;
  3BC   :    7;
  3BD   :    0;
  3BE   :    7;
  3BF   :    7;
  3C0   :   E0;
  3C1   :   60;
  3C2   :   F0;
  3C3   :   70;
  3C4   :   E0;
  3C5   :   E0;
  3C6   :   F0;
  3C7   :   80;
  3C8   :   60;
  3C9   :   90;
  3CA   :    0;
  3CB   :   80;
  3CC   :    0;
  3CD   :   E0;
  3CE   :   F0;
  3CF   :   80;
  3D0   :    7;
  3D1   :   1F;
  3D2   :   3F;
  3D3   :   12;
  3D4   :   13;
  3D5   :    8;
  3D6   :   1F;
  3D7   :   31;
  3D8   :    0;
  3D9   :   10;
  3DA   :   3F;
  3DB   :   7F;
  3DC   :   7F;
  3DD   :   3F;
  3DE   :    3;
  3DF   :    F;
  3E0   :   C0;
  3E1   :   F0;
  3E2   :   40;
  3E3   :    0;
  3E4   :   30;
  3E5   :   18;
  3E6   :   C0;
  3E7   :   F8;
  3E8   :    0;
  3E9   :    0;
  3EA   :   E0;
  3EB   :   F8;
  3EC   :   FC;
  3ED   :   F8;
  3EE   :   B0;
  3EF   :   38;
  3F0   :   31;
  3F1   :   39;
  3F2   :   1F;
  3F3   :   1F;
  3F4   :    F;
  3F5   :   5F;
  3F6   :   7E;
  3F7   :   3C;
  3F8   :   1F;
  3F9   :    7;
  3FA   :    0;
  3FB   :    E;
  3FC   :    F;
  3FD   :   53;
  3FE   :   7C;
  3FF   :   3C;
  400   :   F8;
  401   :   F8;
  402   :   F0;
  403   :   E0;
  404   :   E0;
  405   :   C0;
  406   :    0;
  407   :    0;
  408   :   F8;
  409   :   F8;
  40A   :   F0;
  40B   :    0;
  40C   :    0;
  40D   :   80;
  40E   :    0;
  40F   :    0;
  410   :    0;
  411   :   E0;
  412   :   FC;
  413   :   27;
  414   :   27;
  415   :   11;
  416   :   3E;
  417   :    4;
  418   :    7;
  419   :    7;
  41A   :    3;
  41B   :   F7;
  41C   :   FF;
  41D   :   FF;
  41E   :   FE;
  41F   :   FC;
  420   :   3F;
  421   :   7F;
  422   :   3F;
  423   :    F;
  424   :   1F;
  425   :   3F;
  426   :   7F;
  427   :   4F;
  428   :   3E;
  429   :   7F;
  42A   :   FF;
  42B   :   E2;
  42C   :   50;
  42D   :   38;
  42E   :   70;
  42F   :   40;
  430   :   F8;
  431   :   F9;
  432   :   F9;
  433   :   B7;
  434   :   FF;
  435   :   FF;
  436   :   E0;
  437   :    0;
  438   :   E8;
  439   :   71;
  43A   :    1;
  43B   :   4B;
  43C   :    3;
  43D   :    3;
  43E   :    0;
  43F   :    0;
  440   :    7;
  441   :    7;
  442   :    F;
  443   :   3F;
  444   :   3F;
  445   :   3F;
  446   :   26;
  447   :    4;
  448   :    5;
  449   :    3;
  44A   :    1;
  44B   :   30;
  44C   :   30;
  44D   :   30;
  44E   :   26;
  44F   :    4;
  450   :   F0;
  451   :   F0;
  452   :   F0;
  453   :   E0;
  454   :   C0;
  455   :    0;
  456   :    0;
  457   :    0;
  458   :   FE;
  459   :   FC;
  45A   :   E0;
  45B   :    0;
  45C   :    0;
  45D   :    0;
  45E   :    0;
  45F   :    0;
  460   :    7;
  461   :    7;
  462   :    F;
  463   :   1F;
  464   :   3F;
  465   :    F;
  466   :   1C;
  467   :   18;
  468   :    5;
  469   :    3;
  46A   :    1;
  46B   :   10;
  46C   :   30;
  46D   :    C;
  46E   :   1C;
  46F   :   18;
  470   :   E0;
  471   :   E0;
  472   :   E0;
  473   :   E0;
  474   :   C0;
  475   :   80;
  476   :    0;
  477   :    0;
  478   :   C0;
  479   :   E0;
  47A   :   F0;
  47B   :   78;
  47C   :   18;
  47D   :    8;
  47E   :    0;
  47F   :    0;
  480   :    7;
  481   :    F;
  482   :   1F;
  483   :    F;
  484   :   3F;
  485   :    F;
  486   :   1C;
  487   :   18;
  488   :    7;
  489   :    F;
  48A   :   3E;
  48B   :   7C;
  48C   :   30;
  48D   :    C;
  48E   :   1C;
  48F   :   18;
  490   :   E0;
  491   :   E0;
  492   :   E0;
  493   :   40;
  494   :   C0;
  495   :   80;
  496   :    0;
  497   :    0;
  498   :   60;
  499   :   60;
  49A   :   60;
  49B   :   80;
  49C   :    0;
  49D   :    0;
  49E   :    0;
  49F   :    0;
  4A0   :   7F;
  4A1   :   FF;
  4A2   :   FF;
  4A3   :   FB;
  4A4   :    F;
  4A5   :    F;
  4A6   :    F;
  4A7   :   1F;
  4A8   :   73;
  4A9   :   F3;
  4AA   :   F0;
  4AB   :   F4;
  4AC   :   F0;
  4AD   :   F0;
  4AE   :   70;
  4AF   :   60;
  4B0   :   3F;
  4B1   :   7E;
  4B2   :   7C;
  4B3   :   7C;
  4B4   :   3C;
  4B5   :   3C;
  4B6   :   FC;
  4B7   :   FC;
  4B8   :    0;
  4B9   :    0;
  4BA   :    0;
  4BB   :    0;
  4BC   :   3C;
  4BD   :   3C;
  4BE   :   FC;
  4BF   :   FC;
  4C0   :   60;
  4C1   :   70;
  4C2   :   18;
  4C3   :    8;
  4C4   :    F;
  4C5   :   1F;
  4C6   :   3F;
  4C7   :   7F;
  4C8   :   7F;
  4C9   :   7F;
  4CA   :   1F;
  4CB   :    7;
  4CC   :    B;
  4CD   :   1B;
  4CE   :   3B;
  4CF   :   7B;
  4D0   :   FC;
  4D1   :   7C;
  4D2   :    0;
  4D3   :   20;
  4D4   :   F0;
  4D5   :   F8;
  4D6   :   FC;
  4D7   :   FE;
  4D8   :   FC;
  4D9   :   FC;
  4DA   :   F8;
  4DB   :   E0;
  4DC   :   D0;
  4DD   :   D8;
  4DE   :   DC;
  4DF   :   DE;
  4E0   :    B;
  4E1   :    F;
  4E2   :   1F;
  4E3   :   1E;
  4E4   :   3C;
  4E5   :   3C;
  4E6   :   3C;
  4E7   :   7C;
  4E8   :   C4;
  4E9   :   E0;
  4EA   :   E0;
  4EB   :   40;
  4EC   :    0;
  4ED   :   3C;
  4EE   :   3C;
  4EF   :   7C;
  4F0   :   1F;
  4F1   :   3F;
  4F2   :    D;
  4F3   :    7;
  4F4   :    F;
  4F5   :    E;
  4F6   :   1C;
  4F7   :   3C;
  4F8   :   1D;
  4F9   :   3C;
  4FA   :   3A;
  4FB   :   38;
  4FC   :   30;
  4FD   :    0;
  4FE   :   1C;
  4FF   :   3C;
  500   :    0;
  501   :    0;
  502   :    0;
  503   :    0;
  504   :    0;
  505   :    0;
  506   :    0;
  507   :    0;
  508   :   22;
  509   :   55;
  50A   :   55;
  50B   :   55;
  50C   :   55;
  50D   :   55;
  50E   :   77;
  50F   :   22;
  510   :    0;
  511   :    7;
  512   :   1F;
  513   :   FF;
  514   :    7;
  515   :   1F;
  516   :    F;
  517   :    6;
  518   :    0;
  519   :    0;
  51A   :    0;
  51B   :    0;
  51C   :    0;
  51D   :    0;
  51E   :    0;
  51F   :    0;
  520   :   3F;
  521   :   FF;
  522   :   FF;
  523   :   FF;
  524   :   FF;
  525   :   FF;
  526   :   FB;
  527   :   76;
  528   :    0;
  529   :    0;
  52A   :   CF;
  52B   :    7;
  52C   :   7F;
  52D   :    0;
  52E   :    0;
  52F   :    0;
  530   :   20;
  531   :   F8;
  532   :   FF;
  533   :   C3;
  534   :   FD;
  535   :   FE;
  536   :   F0;
  537   :   40;
  538   :    0;
  539   :    0;
  53A   :   3C;
  53B   :   FC;
  53C   :   FE;
  53D   :   E0;
  53E   :    0;
  53F   :    0;
  540   :   40;
  541   :   E0;
  542   :   40;
  543   :   40;
  544   :   41;
  545   :   41;
  546   :   4F;
  547   :   47;
  548   :   40;
  549   :   E0;
  54A   :   40;
  54B   :   3F;
  54C   :   3E;
  54D   :   3E;
  54E   :   30;
  54F   :   38;
  550   :    0;
  551   :    0;
  552   :    0;
  553   :    0;
  554   :    0;
  555   :    0;
  556   :   E0;
  557   :   C0;
  558   :    0;
  559   :    0;
  55A   :    0;
  55B   :   F8;
  55C   :   F8;
  55D   :   F8;
  55E   :   18;
  55F   :   38;
  560   :   43;
  561   :   46;
  562   :   44;
  563   :   40;
  564   :   40;
  565   :   40;
  566   :   40;
  567   :   40;
  568   :   3C;
  569   :   39;
  56A   :   3B;
  56B   :   3F;
  56C   :    0;
  56D   :    0;
  56E   :    0;
  56F   :    0;
  570   :   80;
  571   :   C0;
  572   :   40;
  573   :    0;
  574   :    0;
  575   :    0;
  576   :    0;
  577   :    0;
  578   :   78;
  579   :   38;
  57A   :   B8;
  57B   :   F8;
  57C   :    0;
  57D   :    0;
  57E   :    0;
  57F   :    0;
  580   :   31;
  581   :   30;
  582   :   38;
  583   :   7C;
  584   :   7F;
  585   :   FF;
  586   :   FF;
  587   :   FB;
  588   :   3F;
  589   :   3F;
  58A   :    F;
  58B   :   77;
  58C   :   77;
  58D   :   F7;
  58E   :   F7;
  58F   :   F7;
  590   :   10;
  591   :   7E;
  592   :   3E;
  593   :    0;
  594   :   1E;
  595   :   FE;
  596   :   FF;
  597   :   FF;
  598   :   FF;
  599   :   FE;
  59A   :   FE;
  59B   :   FE;
  59C   :   FA;
  59D   :   FA;
  59E   :   F3;
  59F   :   E7;
  5A0   :   FF;
  5A1   :   FF;
  5A2   :   E3;
  5A3   :   C3;
  5A4   :   87;
  5A5   :   48;
  5A6   :   3C;
  5A7   :   FC;
  5A8   :   F0;
  5A9   :   F8;
  5AA   :   FC;
  5AB   :   7C;
  5AC   :   78;
  5AD   :   38;
  5AE   :   3C;
  5AF   :   FC;
  5B0   :    0;
  5B1   :   FF;
  5B2   :   C3;
  5B3   :   83;
  5B4   :   83;
  5B5   :   FF;
  5B6   :   FF;
  5B7   :   FF;
  5B8   :   FF;
  5B9   :    0;
  5BA   :   C3;
  5BB   :   81;
  5BC   :   81;
  5BD   :   C3;
  5BE   :   FF;
  5BF   :    0;
  5C0   :   1F;
  5C1   :   1F;
  5C2   :    F;
  5C3   :    7;
  5C4   :    1;
  5C5   :    0;
  5C6   :    0;
  5C7   :    0;
  5C8   :    0;
  5C9   :    0;
  5CA   :    0;
  5CB   :    0;
  5CC   :    0;
  5CD   :    0;
  5CE   :    0;
  5CF   :    0;
  5D0   :   F0;
  5D1   :   FB;
  5D2   :   FF;
  5D3   :   FF;
  5D4   :   FE;
  5D5   :   3E;
  5D6   :    C;
  5D7   :    4;
  5D8   :    0;
  5D9   :    B;
  5DA   :   1F;
  5DB   :   1F;
  5DC   :   1E;
  5DD   :   3E;
  5DE   :    C;
  5DF   :    4;
  5E0   :   1F;
  5E1   :   1F;
  5E2   :    F;
  5E3   :    F;
  5E4   :    7;
  5E5   :    0;
  5E6   :    0;
  5E7   :    0;
  5E8   :    0;
  5E9   :    0;
  5EA   :    0;
  5EB   :    0;
  5EC   :    0;
  5ED   :    0;
  5EE   :    0;
  5EF   :    0;
  5F0   :   FB;
  5F1   :   FF;
  5F2   :   FF;
  5F3   :   FF;
  5F4   :   FF;
  5F5   :    0;
  5F6   :    0;
  5F7   :    0;
  5F8   :    3;
  5F9   :    F;
  5FA   :    F;
  5FB   :    F;
  5FC   :    F;
  5FD   :    0;
  5FE   :    0;
  5FF   :    0;
  600   :    0;
  601   :   18;
  602   :   3C;
  603   :   7E;
  604   :   6E;
  605   :   DF;
  606   :   DF;
  607   :   DF;
  608   :    0;
  609   :   18;
  60A   :   3C;
  60B   :   7E;
  60C   :   76;
  60D   :   FB;
  60E   :   FB;
  60F   :   FB;
  610   :    0;
  611   :   18;
  612   :   18;
  613   :   3C;
  614   :   3C;
  615   :   3C;
  616   :   3C;
  617   :   1C;
  618   :    0;
  619   :   10;
  61A   :   10;
  61B   :   20;
  61C   :   20;
  61D   :   20;
  61E   :   20;
  61F   :   20;
  620   :    0;
  621   :    8;
  622   :    8;
  623   :    8;
  624   :    8;
  625   :    8;
  626   :    8;
  627   :    0;
  628   :    0;
  629   :    8;
  62A   :    8;
  62B   :    8;
  62C   :    8;
  62D   :    8;
  62E   :    8;
  62F   :    8;
  630   :    0;
  631   :    8;
  632   :    8;
  633   :    4;
  634   :    4;
  635   :    4;
  636   :    4;
  637   :    4;
  638   :    0;
  639   :   10;
  63A   :   10;
  63B   :   38;
  63C   :   38;
  63D   :   38;
  63E   :   38;
  63F   :   38;
  640   :   3C;
  641   :   7E;
  642   :   77;
  643   :   FB;
  644   :   9F;
  645   :   5F;
  646   :   8E;
  647   :   20;
  648   :    0;
  649   :   18;
  64A   :   3C;
  64B   :    E;
  64C   :    E;
  64D   :    4;
  64E   :    0;
  64F   :    0;
  650   :   5C;
  651   :   2E;
  652   :   8F;
  653   :   3F;
  654   :   7B;
  655   :   77;
  656   :   7E;
  657   :   3C;
  658   :    0;
  659   :    0;
  65A   :    4;
  65B   :    6;
  65C   :   1E;
  65D   :   3C;
  65E   :   18;
  65F   :    0;
  660   :   13;
  661   :   4F;
  662   :   3F;
  663   :   BF;
  664   :   3F;
  665   :   7A;
  666   :   F8;
  667   :   F8;
  668   :    0;
  669   :    0;
  66A   :    1;
  66B   :    A;
  66C   :   17;
  66D   :    F;
  66E   :   2F;
  66F   :   1F;
  670   :    0;
  671   :    8;
  672   :    5;
  673   :    F;
  674   :   2F;
  675   :   1D;
  676   :   1C;
  677   :   3C;
  678   :    0;
  679   :    0;
  67A   :    0;
  67B   :    0;
  67C   :    5;
  67D   :    7;
  67E   :    F;
  67F   :    7;
  680   :    0;
  681   :    0;
  682   :    0;
  683   :    0;
  684   :    2;
  685   :    B;
  686   :    7;
  687   :    F;
  688   :    0;
  689   :    0;
  68A   :    0;
  68B   :    0;
  68C   :    0;
  68D   :    0;
  68E   :    1;
  68F   :    3;
  690   :    0;
  691   :    0;
  692   :    0;
  693   :    0;
  694   :    0;
  695   :    8;
  696   :    4;
  697   :    4;
  698   :    0;
  699   :   60;
  69A   :   F0;
  69B   :   F8;
  69C   :   7C;
  69D   :   3E;
  69E   :   7E;
  69F   :   7F;
  6A0   :    2;
  6A1   :    2;
  6A2   :    2;
  6A3   :    5;
  6A4   :   71;
  6A5   :   7F;
  6A6   :   7F;
  6A7   :   7F;
  6A8   :   3F;
  6A9   :   5F;
  6AA   :   7F;
  6AB   :   3E;
  6AC   :    E;
  6AD   :    A;
  6AE   :   51;
  6AF   :   20;
  6B0   :    0;
  6B1   :    0;
  6B2   :    0;
  6B3   :    0;
  6B4   :    0;
  6B5   :    0;
  6B6   :    0;
  6B7   :    4;
  6B8   :    0;
  6B9   :    0;
  6BA   :    0;
  6BB   :    0;
  6BC   :    0;
  6BD   :    0;
  6BE   :    E;
  6BF   :   1F;
  6C0   :    2;
  6C1   :    2;
  6C2   :    0;
  6C3   :    1;
  6C4   :   13;
  6C5   :   3F;
  6C6   :   7F;
  6C7   :   7F;
  6C8   :   3F;
  6C9   :   7F;
  6CA   :   7F;
  6CB   :   FE;
  6CC   :   EC;
  6CD   :   CA;
  6CE   :   51;
  6CF   :   20;
  6D0   :    0;
  6D1   :   40;
  6D2   :   60;
  6D3   :   70;
  6D4   :   73;
  6D5   :   27;
  6D6   :    F;
  6D7   :   1F;
  6D8   :    0;
  6D9   :   40;
  6DA   :   63;
  6DB   :   77;
  6DC   :   7C;
  6DD   :   38;
  6DE   :   F8;
  6DF   :   E4;
  6E0   :    0;
  6E1   :    0;
  6E2   :    0;
  6E3   :    0;
  6E4   :    3;
  6E5   :    7;
  6E6   :    F;
  6E7   :   1F;
  6E8   :    0;
  6E9   :    0;
  6EA   :    3;
  6EB   :    7;
  6EC   :    C;
  6ED   :   18;
  6EE   :   F8;
  6EF   :   E4;
  6F0   :   7F;
  6F1   :   7F;
  6F2   :   3F;
  6F3   :   3F;
  6F4   :   1F;
  6F5   :   1F;
  6F6   :    F;
  6F7   :    7;
  6F8   :    3;
  6F9   :   44;
  6FA   :   28;
  6FB   :   10;
  6FC   :    8;
  6FD   :    4;
  6FE   :    3;
  6FF   :    4;
  700   :    3;
  701   :    7;
  702   :    F;
  703   :   1F;
  704   :   3F;
  705   :   77;
  706   :   77;
  707   :   F5;
  708   :    3;
  709   :    7;
  70A   :    F;
  70B   :   1F;
  70C   :   27;
  70D   :   7B;
  70E   :   78;
  70F   :   FB;
  710   :   C0;
  711   :   E0;
  712   :   F0;
  713   :   F8;
  714   :   FC;
  715   :   EE;
  716   :   EE;
  717   :   AF;
  718   :   C0;
  719   :   E0;
  71A   :   F0;
  71B   :   F8;
  71C   :   E4;
  71D   :   DE;
  71E   :   1E;
  71F   :   DF;
  720   :   F1;
  721   :   FF;
  722   :   78;
  723   :    0;
  724   :    0;
  725   :   18;
  726   :   1C;
  727   :    E;
  728   :   FF;
  729   :   FF;
  72A   :   7F;
  72B   :    F;
  72C   :    F;
  72D   :    7;
  72E   :    3;
  72F   :    0;
  730   :   8F;
  731   :   FF;
  732   :   1E;
  733   :    0;
  734   :    C;
  735   :   3E;
  736   :   7E;
  737   :   7C;
  738   :   FF;
  739   :   FF;
  73A   :   FE;
  73B   :   F0;
  73C   :   F0;
  73D   :   C0;
  73E   :   80;
  73F   :    0;
  740   :    0;
  741   :    0;
  742   :    0;
  743   :    0;
  744   :    0;
  745   :    0;
  746   :    0;
  747   :    0;
  748   :    0;
  749   :    0;
  74A   :   18;
  74B   :   24;
  74C   :   24;
  74D   :   18;
  74E   :    0;
  74F   :    0;
  750   :    0;
  751   :    2;
  752   :   41;
  753   :   41;
  754   :   61;
  755   :   33;
  756   :    6;
  757   :   3C;
  758   :   3C;
  759   :   7E;
  75A   :   FF;
  75B   :   FF;
  75C   :   FF;
  75D   :   FF;
  75E   :   7E;
  75F   :   3C;
  760   :    3;
  761   :    7;
  762   :    F;
  763   :   1F;
  764   :   3F;
  765   :   7F;
  766   :   7F;
  767   :   FF;
  768   :    3;
  769   :    7;
  76A   :    F;
  76B   :   1F;
  76C   :   3F;
  76D   :   63;
  76E   :   41;
  76F   :   C1;
  770   :   C0;
  771   :   E0;
  772   :   F0;
  773   :   F8;
  774   :   FC;
  775   :   FE;
  776   :   FE;
  777   :   FF;
  778   :   C0;
  779   :   80;
  77A   :    0;
  77B   :    0;
  77C   :   8C;
  77D   :   FE;
  77E   :   FE;
  77F   :   F3;
  780   :   FF;
  781   :   FF;
  782   :   FF;
  783   :   78;
  784   :    0;
  785   :    0;
  786   :    0;
  787   :    0;
  788   :   C1;
  789   :   E3;
  78A   :   FF;
  78B   :   47;
  78C   :    F;
  78D   :    F;
  78E   :    F;
  78F   :    7;
  790   :   FF;
  791   :   FF;
  792   :   FF;
  793   :   1E;
  794   :    0;
  795   :   20;
  796   :   20;
  797   :   40;
  798   :   F1;
  799   :   F9;
  79A   :   FF;
  79B   :   E2;
  79C   :   F0;
  79D   :   F0;
  79E   :   F0;
  79F   :   E0;
  7A0   :   16;
  7A1   :   1F;
  7A2   :   3F;
  7A3   :   7F;
  7A4   :   3D;
  7A5   :   1D;
  7A6   :   3F;
  7A7   :   1F;
  7A8   :   16;
  7A9   :   1F;
  7AA   :    0;
  7AB   :    0;
  7AC   :    5;
  7AD   :    D;
  7AE   :   3F;
  7AF   :   1F;
  7B0   :   80;
  7B1   :   80;
  7B2   :   C0;
  7B3   :   E0;
  7B4   :   F0;
  7B5   :   F0;
  7B6   :   F0;
  7B7   :   F8;
  7B8   :   80;
  7B9   :   80;
  7BA   :    0;
  7BB   :    0;
  7BC   :    0;
  7BD   :   A0;
  7BE   :   A0;
  7BF   :   E0;
  7C0   :   3C;
  7C1   :   FA;
  7C2   :   B1;
  7C3   :   72;
  7C4   :   F2;
  7C5   :   DB;
  7C6   :   DF;
  7C7   :   5F;
  7C8   :    0;
  7C9   :    4;
  7CA   :   4E;
  7CB   :   8C;
  7CC   :    C;
  7CD   :   7F;
  7CE   :   FF;
  7CF   :   FF;
  7D0   :    0;
  7D1   :    0;
  7D2   :    0;
  7D3   :    1;
  7D4   :    1;
  7D5   :    1;
  7D6   :    6;
  7D7   :   1E;
  7D8   :    0;
  7D9   :    0;
  7DA   :    0;
  7DB   :    0;
  7DC   :    0;
  7DD   :    0;
  7DE   :    1;
  7DF   :    1;
  7E0   :    0;
  7E1   :    0;
  7E2   :    0;
  7E3   :    0;
  7E4   :    0;
  7E5   :    0;
  7E6   :    0;
  7E7   :    0;
  7E8   :   FF;
  7E9   :   7F;
  7EA   :   3F;
  7EB   :   1F;
  7EC   :    F;
  7ED   :    7;
  7EE   :    3;
  7EF   :    1;
  7F0   :    0;
  7F1   :   7C;
  7F2   :   D6;
  7F3   :   92;
  7F4   :   BA;
  7F5   :   EE;
  7F6   :   FE;
  7F7   :   38;
  7F8   :   FF;
  7F9   :   83;
  7FA   :   29;
  7FB   :   6D;
  7FC   :   45;
  7FD   :   11;
  7FE   :    1;
  7FF   :   C7;
  800   :    0;
  801   :   15;
  802   :   3F;
  803   :   62;
  804   :   5F;
  805   :   FF;
  806   :   9F;
  807   :   7D;
  808   :    8;
  809   :    8;
  80A   :    2;
  80B   :   1F;
  80C   :   22;
  80D   :    2;
  80E   :    2;
  80F   :    0;
  810   :    0;
  811   :    0;
  812   :    0;
  813   :    0;
  814   :    0;
  815   :    0;
  816   :    0;
  817   :    0;
  818   :    8;
  819   :    8;
  81A   :    8;
  81B   :    8;
  81C   :    8;
  81D   :    8;
  81E   :    8;
  81F   :    8;
  820   :   2F;
  821   :   1E;
  822   :   2F;
  823   :   2F;
  824   :   2F;
  825   :   15;
  826   :    D;
  827   :    E;
  828   :   10;
  829   :   1E;
  82A   :   10;
  82B   :   50;
  82C   :   10;
  82D   :    8;
  82E   :    0;
  82F   :    0;
  830   :    0;
  831   :    0;
  832   :    0;
  833   :    0;
  834   :    0;
  835   :    0;
  836   :    0;
  837   :    0;
  838   :    0;
  839   :    0;
  83A   :    0;
  83B   :   FE;
  83C   :    0;
  83D   :    0;
  83E   :    0;
  83F   :    0;
  840   :   1C;
  841   :   3E;
  842   :   7F;
  843   :   FF;
  844   :   FF;
  845   :   FE;
  846   :   7C;
  847   :   38;
  848   :   1C;
  849   :   2A;
  84A   :   77;
  84B   :   EE;
  84C   :   DD;
  84D   :   AA;
  84E   :   74;
  84F   :   28;
  850   :    0;
  851   :   FF;
  852   :   FF;
  853   :   FF;
  854   :   FF;
  855   :   FF;
  856   :   FF;
  857   :   FF;
  858   :   FF;
  859   :   FE;
  85A   :   FE;
  85B   :    0;
  85C   :   EF;
  85D   :   EF;
  85E   :   EF;
  85F   :    0;
  860   :   FF;
  861   :   FF;
  862   :   FF;
  863   :   FF;
  864   :   FF;
  865   :   FF;
  866   :   FF;
  867   :   FF;
  868   :   FE;
  869   :   FE;
  86A   :   FE;
  86B   :    0;
  86C   :   EF;
  86D   :   EF;
  86E   :   EF;
  86F   :    0;
  870   :   7F;
  871   :   FF;
  872   :   FF;
  873   :   FF;
  874   :   FF;
  875   :   FF;
  876   :   FF;
  877   :   FF;
  878   :    0;
  879   :   7F;
  87A   :   5F;
  87B   :   7F;
  87C   :   7F;
  87D   :   7F;
  87E   :   7F;
  87F   :   7F;
  880   :   68;
  881   :   4E;
  882   :   E0;
  883   :   E0;
  884   :   E0;
  885   :   F0;
  886   :   F8;
  887   :   FC;
  888   :   B8;
  889   :   9E;
  88A   :   80;
  88B   :   C0;
  88C   :   E0;
  88D   :   F0;
  88E   :   F8;
  88F   :   7C;
  890   :   3F;
  891   :   5C;
  892   :   39;
  893   :   3B;
  894   :   BB;
  895   :   F9;
  896   :   FC;
  897   :   FE;
  898   :    0;
  899   :   23;
  89A   :   57;
  89B   :   4F;
  89C   :   57;
  89D   :   27;
  89E   :   C3;
  89F   :   21;
  8A0   :   C0;
  8A1   :   F0;
  8A2   :   F0;
  8A3   :   F0;
  8A4   :   F0;
  8A5   :   E0;
  8A6   :   C0;
  8A7   :    0;
  8A8   :    0;
  8A9   :   30;
  8AA   :   70;
  8AB   :   70;
  8AC   :   F0;
  8AD   :   E0;
  8AE   :   C0;
  8AF   :    0;
  8B0   :   FE;
  8B1   :   FC;
  8B2   :   61;
  8B3   :    F;
  8B4   :   FF;
  8B5   :   FE;
  8B6   :   F0;
  8B7   :   E0;
  8B8   :   13;
  8B9   :    F;
  8BA   :   1E;
  8BB   :   F0;
  8BC   :   FC;
  8BD   :   F8;
  8BE   :   F0;
  8BF   :   E0;
  8C0   :   6E;
  8C1   :   40;
  8C2   :   E0;
  8C3   :   E0;
  8C4   :   E0;
  8C5   :   E0;
  8C6   :   E0;
  8C7   :   C0;
  8C8   :   BE;
  8C9   :   90;
  8CA   :   80;
  8CB   :   C0;
  8CC   :   C0;
  8CD   :   80;
  8CE   :    0;
  8CF   :    0;
  8D0   :    1;
  8D1   :    1;
  8D2   :    3;
  8D3   :    3;
  8D4   :    7;
  8D5   :   7F;
  8D6   :   7F;
  8D7   :   3F;
  8D8   :    1;
  8D9   :    1;
  8DA   :    3;
  8DB   :    3;
  8DC   :    7;
  8DD   :   7F;
  8DE   :   7D;
  8DF   :   3D;
  8E0   :    6;
  8E1   :    7;
  8E2   :   3F;
  8E3   :   3C;
  8E4   :   19;
  8E5   :   7B;
  8E6   :   7F;
  8E7   :   3F;
  8E8   :    6;
  8E9   :    4;
  8EA   :   30;
  8EB   :   23;
  8EC   :    6;
  8ED   :   64;
  8EE   :   60;
  8EF   :    0;
  8F0   :   3F;
  8F1   :   7F;
  8F2   :   7F;
  8F3   :   1F;
  8F4   :   3F;
  8F5   :   3F;
  8F6   :    7;
  8F7   :    6;
  8F8   :    0;
  8F9   :   60;
  8FA   :   60;
  8FB   :    0;
  8FC   :   20;
  8FD   :   30;
  8FE   :    4;
  8FF   :    6;
  900   :    3;
  901   :    7;
  902   :    F;
  903   :    F;
  904   :    F;
  905   :    F;
  906   :    7;
  907   :    3;
  908   :    0;
  909   :    1;
  90A   :    1;
  90B   :    0;
  90C   :    0;
  90D   :    0;
  90E   :    0;
  90F   :    0;
  910   :   F8;
  911   :   F8;
  912   :   F8;
  913   :   A0;
  914   :   E1;
  915   :   FF;
  916   :   FF;
  917   :   FF;
  918   :   FE;
  919   :   FF;
  91A   :   FF;
  91B   :   40;
  91C   :    1;
  91D   :    3;
  91E   :    3;
  91F   :    3;
  920   :    F;
  921   :    F;
  922   :    F;
  923   :   1F;
  924   :   1F;
  925   :   1F;
  926   :    F;
  927   :    7;
  928   :    1;
  929   :    1;
  92A   :    0;
  92B   :    0;
  92C   :    0;
  92D   :    0;
  92E   :    0;
  92F   :    0;
  930   :   E0;
  931   :   F8;
  932   :   F8;
  933   :   F8;
  934   :   FF;
  935   :   FE;
  936   :   F0;
  937   :   C0;
  938   :   E0;
  939   :   FE;
  93A   :   FF;
  93B   :   7F;
  93C   :    3;
  93D   :    2;
  93E   :    0;
  93F   :    0;
  940   :    1;
  941   :    F;
  942   :    F;
  943   :   1F;
  944   :   39;
  945   :   33;
  946   :   37;
  947   :   7F;
  948   :    1;
  949   :    D;
  94A   :    8;
  94B   :    0;
  94C   :   36;
  94D   :   2C;
  94E   :    8;
  94F   :   60;
  950   :   7F;
  951   :   3F;
  952   :   3F;
  953   :   3F;
  954   :   1F;
  955   :    F;
  956   :    F;
  957   :    1;
  958   :   60;
  959   :    0;
  95A   :   20;
  95B   :   30;
  95C   :    0;
  95D   :    8;
  95E   :    D;
  95F   :    1;
  960   :    0;
  961   :    0;
  962   :    3;
  963   :    3;
  964   :   47;
  965   :   67;
  966   :   77;
  967   :   77;
  968   :    1;
  969   :    1;
  96A   :    3;
  96B   :   43;
  96C   :   67;
  96D   :   77;
  96E   :   7B;
  96F   :   78;
  970   :    0;
  971   :    0;
  972   :    0;
  973   :    0;
  974   :   88;
  975   :   98;
  976   :   F8;
  977   :   F0;
  978   :    0;
  979   :    0;
  97A   :   80;
  97B   :   84;
  97C   :   CC;
  97D   :   DC;
  97E   :   BC;
  97F   :   3C;
  980   :   7E;
  981   :   7F;
  982   :   FF;
  983   :   1F;
  984   :    7;
  985   :   30;
  986   :   1C;
  987   :    C;
  988   :   33;
  989   :    7;
  98A   :    7;
  98B   :   E3;
  98C   :   38;
  98D   :   3F;
  98E   :   1C;
  98F   :    C;
  990   :   7E;
  991   :   38;
  992   :   F6;
  993   :   ED;
  994   :   DF;
  995   :   38;
  996   :   70;
  997   :   60;
  998   :   98;
  999   :   C7;
  99A   :   C8;
  99B   :   92;
  99C   :   30;
  99D   :   F8;
  99E   :   70;
  99F   :   60;
  9A0   :    0;
  9A1   :    0;
  9A2   :    0;
  9A3   :    3;
  9A4   :    3;
  9A5   :   47;
  9A6   :   67;
  9A7   :   77;
  9A8   :    0;
  9A9   :    1;
  9AA   :    1;
  9AB   :    3;
  9AC   :   43;
  9AD   :   67;
  9AE   :   77;
  9AF   :   7B;
  9B0   :    0;
  9B1   :    0;
  9B2   :    0;
  9B3   :    0;
  9B4   :    0;
  9B5   :   88;
  9B6   :   98;
  9B7   :   F8;
  9B8   :    0;
  9B9   :    0;
  9BA   :    0;
  9BB   :   80;
  9BC   :   84;
  9BD   :   CC;
  9BE   :   DC;
  9BF   :   BC;
  9C0   :   77;
  9C1   :   7E;
  9C2   :   7F;
  9C3   :   FF;
  9C4   :   1F;
  9C5   :    7;
  9C6   :   70;
  9C7   :   F0;
  9C8   :   78;
  9C9   :   33;
  9CA   :    7;
  9CB   :    7;
  9CC   :   E3;
  9CD   :   38;
  9CE   :   7F;
  9CF   :   F0;
  9D0   :   F0;
  9D1   :   7E;
  9D2   :   38;
  9D3   :   F6;
  9D4   :   ED;
  9D5   :   DF;
  9D6   :   38;
  9D7   :   3C;
  9D8   :   3C;
  9D9   :   98;
  9DA   :   C7;
  9DB   :   C8;
  9DC   :   92;
  9DD   :   30;
  9DE   :   F8;
  9DF   :   3C;
  9E0   :    3;
  9E1   :    7;
  9E2   :    A;
  9E3   :   1A;
  9E4   :   1C;
  9E5   :   1E;
  9E6   :    B;
  9E7   :    8;
  9E8   :    0;
  9E9   :   10;
  9EA   :   7F;
  9EB   :   7F;
  9EC   :   7F;
  9ED   :   1F;
  9EE   :    F;
  9EF   :    F;
  9F0   :   1C;
  9F1   :   3F;
  9F2   :   3F;
  9F3   :   3D;
  9F4   :   3F;
  9F5   :   1F;
  9F6   :    0;
  9F7   :    0;
  9F8   :    3;
  9F9   :   33;
  9FA   :   39;
  9FB   :   3A;
  9FC   :   38;
  9FD   :   18;
  9FE   :    0;
  9FF   :    0;
  A00   :    0;
  A01   :    0;
  A02   :    4;
  A03   :   4C;
  A04   :   4E;
  A05   :   4E;
  A06   :   46;
  A07   :   6F;
  A08   :   10;
  A09   :   38;
  A0A   :   3C;
  A0B   :   74;
  A0C   :   76;
  A0D   :   76;
  A0E   :   7E;
  A0F   :   7D;
  A10   :    0;
  A11   :   1F;
  A12   :   3F;
  A13   :   3F;
  A14   :   4F;
  A15   :   5F;
  A16   :   7F;
  A17   :   7F;
  A18   :    0;
  A19   :    0;
  A1A   :   11;
  A1B   :    A;
  A1C   :   34;
  A1D   :   2A;
  A1E   :   51;
  A1F   :   20;
  A20   :   7F;
  A21   :   67;
  A22   :   A3;
  A23   :   B0;
  A24   :   D8;
  A25   :   DE;
  A26   :   DC;
  A27   :   C8;
  A28   :   7F;
  A29   :   67;
  A2A   :   63;
  A2B   :   70;
  A2C   :   38;
  A2D   :   3E;
  A2E   :   7C;
  A2F   :   B8;
  A30   :   7F;
  A31   :   7F;
  A32   :   7F;
  A33   :   1F;
  A34   :   47;
  A35   :   70;
  A36   :   70;
  A37   :   39;
  A38   :   51;
  A39   :    A;
  A3A   :    4;
  A3B   :   EA;
  A3C   :   79;
  A3D   :   7F;
  A3E   :   70;
  A3F   :   39;
  A40   :   E8;
  A41   :   E8;
  A42   :   E0;
  A43   :   C0;
  A44   :   10;
  A45   :   70;
  A46   :   E0;
  A47   :   C0;
  A48   :   58;
  A49   :   38;
  A4A   :   10;
  A4B   :   30;
  A4C   :   F0;
  A4D   :   F0;
  A4E   :   E0;
  A4F   :   C0;
  A50   :    0;
  A51   :    0;
  A52   :    0;
  A53   :   20;
  A54   :   66;
  A55   :   66;
  A56   :   66;
  A57   :   62;
  A58   :    0;
  A59   :    8;
  A5A   :   1C;
  A5B   :   3C;
  A5C   :   7A;
  A5D   :   7A;
  A5E   :   7A;
  A5F   :   7E;
  A60   :    0;
  A61   :    0;
  A62   :   1F;
  A63   :   3F;
  A64   :   7F;
  A65   :   4F;
  A66   :   5F;
  A67   :   7F;
  A68   :    0;
  A69   :    0;
  A6A   :    0;
  A6B   :   11;
  A6C   :    A;
  A6D   :   34;
  A6E   :   2A;
  A6F   :   51;
  A70   :   77;
  A71   :   7F;
  A72   :   3F;
  A73   :   B7;
  A74   :   B3;
  A75   :   DB;
  A76   :   DA;
  A77   :   D8;
  A78   :   7F;
  A79   :   7D;
  A7A   :   3F;
  A7B   :   37;
  A7C   :   33;
  A7D   :   3B;
  A7E   :   3A;
  A7F   :   78;
  A80   :   7F;
  A81   :   7F;
  A82   :   7F;
  A83   :   7F;
  A84   :   1F;
  A85   :    7;
  A86   :   70;
  A87   :   F0;
  A88   :   20;
  A89   :   51;
  A8A   :    A;
  A8B   :    4;
  A8C   :   EA;
  A8D   :   39;
  A8E   :   7F;
  A8F   :   F0;
  A90   :   CC;
  A91   :   E8;
  A92   :   E8;
  A93   :   E0;
  A94   :   C0;
  A95   :   18;
  A96   :   7C;
  A97   :   3E;
  A98   :   BC;
  A99   :   58;
  A9A   :   38;
  A9B   :   10;
  A9C   :   30;
  A9D   :   F8;
  A9E   :   FC;
  A9F   :   3E;
  AA0   :    3;
  AA1   :    F;
  AA2   :   1F;
  AA3   :   3F;
  AA4   :   3B;
  AA5   :   3F;
  AA6   :   7F;
  AA7   :   7F;
  AA8   :    0;
  AA9   :    0;
  AAA   :    0;
  AAB   :    6;
  AAC   :    E;
  AAD   :    C;
  AAE   :    0;
  AAF   :    0;
  AB0   :   80;
  AB1   :   F0;
  AB2   :   F8;
  AB3   :   FC;
  AB4   :   FE;
  AB5   :   FE;
  AB6   :   FF;
  AB7   :   FE;
  AB8   :    0;
  AB9   :    0;
  ABA   :    0;
  ABB   :    0;
  ABC   :    0;
  ABD   :    0;
  ABE   :    F;
  ABF   :   18;
  AC0   :   7F;
  AC1   :   7F;
  AC2   :   7F;
  AC3   :   7F;
  AC4   :   FF;
  AC5   :    F;
  AC6   :    3;
  AC7   :    0;
  AC8   :    0;
  AC9   :    0;
  ACA   :    0;
  ACB   :    0;
  ACC   :   F8;
  ACD   :   3E;
  ACE   :   3B;
  ACF   :   18;
  AD0   :   FE;
  AD1   :   FB;
  AD2   :   FF;
  AD3   :   FF;
  AD4   :   F6;
  AD5   :   E0;
  AD6   :   C0;
  AD7   :    0;
  AD8   :   10;
  AD9   :   14;
  ADA   :   10;
  ADB   :   10;
  ADC   :   38;
  ADD   :   78;
  ADE   :   F8;
  ADF   :   30;
  AE0   :    0;
  AE1   :    3;
  AE2   :    F;
  AE3   :   1F;
  AE4   :   3F;
  AE5   :   3B;
  AE6   :   3F;
  AE7   :   7F;
  AE8   :    0;
  AE9   :    0;
  AEA   :    0;
  AEB   :    0;
  AEC   :    6;
  AED   :    E;
  AEE   :    C;
  AEF   :    0;
  AF0   :    0;
  AF1   :   C0;
  AF2   :   F0;
  AF3   :   F8;
  AF4   :   FC;
  AF5   :   FE;
  AF6   :   FE;
  AF7   :   FF;
  AF8   :    0;
  AF9   :    0;
  AFA   :    0;
  AFB   :    0;
  AFC   :    0;
  AFD   :    0;
  AFE   :    0;
  AFF   :    F;
  B00   :   7F;
  B01   :   7F;
  B02   :   7F;
  B03   :   7F;
  B04   :   7F;
  B05   :   FF;
  B06   :    F;
  B07   :    3;
  B08   :    0;
  B09   :    0;
  B0A   :    0;
  B0B   :    0;
  B0C   :    0;
  B0D   :   F8;
  B0E   :   7E;
  B0F   :   F3;
  B10   :   FE;
  B11   :   FE;
  B12   :   FB;
  B13   :   FF;
  B14   :   FF;
  B15   :   F6;
  B16   :   E0;
  B17   :   C0;
  B18   :   18;
  B19   :   10;
  B1A   :   14;
  B1B   :   10;
  B1C   :   10;
  B1D   :   38;
  B1E   :   7C;
  B1F   :   DE;
  B20   :    0;
  B21   :    1;
  B22   :    1;
  B23   :    1;
  B24   :    1;
  B25   :    0;
  B26   :    0;
  B27   :    8;
  B28   :    0;
  B29   :    D;
  B2A   :   1E;
  B2B   :   1E;
  B2C   :   1E;
  B2D   :   1F;
  B2E   :    F;
  B2F   :    7;
  B30   :   78;
  B31   :   F0;
  B32   :   F8;
  B33   :   E4;
  B34   :   C0;
  B35   :   CA;
  B36   :   CA;
  B37   :   C0;
  B38   :   78;
  B39   :   F0;
  B3A   :    0;
  B3B   :   1A;
  B3C   :   3F;
  B3D   :   35;
  B3E   :   35;
  B3F   :   3F;
  B40   :    F;
  B41   :   1F;
  B42   :   9F;
  B43   :   FF;
  B44   :   FF;
  B45   :   7F;
  B46   :   74;
  B47   :   20;
  B48   :    0;
  B49   :    0;
  B4A   :   80;
  B4B   :   E0;
  B4C   :   E0;
  B4D   :   70;
  B4E   :   73;
  B4F   :   21;
  B50   :   E4;
  B51   :   FF;
  B52   :   FE;
  B53   :   FC;
  B54   :   9C;
  B55   :   1E;
  B56   :    0;
  B57   :    0;
  B58   :   1A;
  B59   :    7;
  B5A   :    C;
  B5B   :   18;
  B5C   :   78;
  B5D   :   FE;
  B5E   :   FC;
  B5F   :   F0;
  B60   :    0;
  B61   :    1;
  B62   :    3;
  B63   :    3;
  B64   :    7;
  B65   :    3;
  B66   :    1;
  B67   :    0;
  B68   :    0;
  B69   :    1;
  B6A   :    2;
  B6B   :    0;
  B6C   :   38;
  B6D   :   7C;
  B6E   :   7E;
  B6F   :   3F;
  B70   :    0;
  B71   :   5F;
  B72   :   7F;
  B73   :   7F;
  B74   :   3F;
  B75   :   3F;
  B76   :   14;
  B77   :    0;
  B78   :   3F;
  B79   :   40;
  B7A   :   60;
  B7B   :   60;
  B7C   :   20;
  B7D   :   30;
  B7E   :   13;
  B7F   :    1;
  B80   :   C0;
  B81   :   E0;
  B82   :   F0;
  B83   :   30;
  B84   :   38;
  B85   :   3C;
  B86   :   3C;
  B87   :   FC;
  B88   :   C0;
  B89   :   E0;
  B8A   :   30;
  B8B   :   D0;
  B8C   :   D0;
  B8D   :   D0;
  B8E   :   D0;
  B8F   :    0;
  B90   :    7;
  B91   :    F;
  B92   :   1F;
  B93   :   22;
  B94   :   20;
  B95   :   25;
  B96   :   25;
  B97   :   1F;
  B98   :    7;
  B99   :    F;
  B9A   :    2;
  B9B   :   1D;
  B9C   :   1F;
  B9D   :   1A;
  B9E   :   1A;
  B9F   :    2;
  BA0   :   FE;
  BA1   :   FE;
  BA2   :   7E;
  BA3   :   3A;
  BA4   :    2;
  BA5   :    1;
  BA6   :   41;
  BA7   :   41;
  BA8   :   38;
  BA9   :   7C;
  BAA   :   FC;
  BAB   :   FC;
  BAC   :   FC;
  BAD   :   FE;
  BAE   :   BE;
  BAF   :   BE;
  BB0   :   1F;
  BB1   :   3F;
  BB2   :   7E;
  BB3   :   5C;
  BB4   :   40;
  BB5   :   80;
  BB6   :   82;
  BB7   :   82;
  BB8   :   1C;
  BB9   :   3E;
  BBA   :   3F;
  BBB   :   3F;
  BBC   :   3F;
  BBD   :   7F;
  BBE   :   7D;
  BBF   :   7D;
  BC0   :   82;
  BC1   :   80;
  BC2   :   A0;
  BC3   :   44;
  BC4   :   43;
  BC5   :   40;
  BC6   :   21;
  BC7   :   1E;
  BC8   :   7D;
  BC9   :   7F;
  BCA   :   5F;
  BCB   :   3B;
  BCC   :   3C;
  BCD   :   3F;
  BCE   :   1E;
  BCF   :    0;
  BD0   :   1C;
  BD1   :   3F;
  BD2   :   3E;
  BD3   :   3C;
  BD4   :   40;
  BD5   :   80;
  BD6   :   82;
  BD7   :   82;
  BD8   :   1C;
  BD9   :   3E;
  BDA   :   3F;
  BDB   :   1F;
  BDC   :   3F;
  BDD   :   7F;
  BDE   :   7D;
  BDF   :   7D;
  BE0   :    0;
  BE1   :    0;
  BE2   :   80;
  BE3   :   80;
  BE4   :   92;
  BE5   :   9D;
  BE6   :   C7;
  BE7   :   EF;
  BE8   :    0;
  BE9   :    0;
  BEA   :    0;
  BEB   :   60;
  BEC   :   62;
  BED   :   65;
  BEE   :   3F;
  BEF   :   1F;
  BF0   :    0;
  BF1   :   23;
  BF2   :   33;
  BF3   :   3F;
  BF4   :   3F;
  BF5   :   7F;
  BF6   :   7F;
  BF7   :   7F;
  BF8   :   70;
  BF9   :   3C;
  BFA   :   3C;
  BFB   :   18;
  BFC   :    0;
  BFD   :    0;
  BFE   :    2;
  BFF   :    7;
  C00   :   FE;
  C01   :   F8;
  C02   :   A0;
  C03   :    0;
  C04   :    0;
  C05   :    0;
  C06   :   80;
  C07   :   80;
  C08   :   CF;
  C09   :   7A;
  C0A   :   5A;
  C0B   :   10;
  C0C   :    0;
  C0D   :    0;
  C0E   :   C0;
  C0F   :   80;
  C10   :   7E;
  C11   :   7F;
  C12   :   7D;
  C13   :   3F;
  C14   :   1E;
  C15   :   8F;
  C16   :   8F;
  C17   :   19;
  C18   :   85;
  C19   :   84;
  C1A   :   86;
  C1B   :   C6;
  C1C   :   E7;
  C1D   :   73;
  C1E   :   73;
  C1F   :   E1;
  C20   :   E0;
  C21   :    E;
  C22   :   73;
  C23   :   F3;
  C24   :   F9;
  C25   :   F9;
  C26   :   F8;
  C27   :   70;
  C28   :   80;
  C29   :   4E;
  C2A   :   77;
  C2B   :   F3;
  C2C   :   FB;
  C2D   :   F9;
  C2E   :   FA;
  C2F   :   78;
  C30   :    E;
  C31   :   66;
  C32   :   E2;
  C33   :   F6;
  C34   :   FF;
  C35   :   FF;
  C36   :   1F;
  C37   :   98;
  C38   :   11;
  C39   :   39;
  C3A   :   7D;
  C3B   :   39;
  C3C   :    0;
  C3D   :    0;
  C3E   :   E0;
  C3F   :   E7;
  C40   :    0;
  C41   :    0;
  C42   :    0;
  C43   :    4;
  C44   :    F;
  C45   :    F;
  C46   :   1F;
  C47   :    7;
  C48   :    0;
  C49   :    0;
  C4A   :    7;
  C4B   :    7;
  C4C   :   16;
  C4D   :   10;
  C4E   :    0;
  C4F   :   38;
  C50   :   F3;
  C51   :   E7;
  C52   :   EE;
  C53   :   EC;
  C54   :   CD;
  C55   :   CF;
  C56   :   CF;
  C57   :   DF;
  C58   :   CF;
  C59   :   1F;
  C5A   :   17;
  C5B   :   10;
  C5C   :   33;
  C5D   :   30;
  C5E   :   30;
  C5F   :   20;
  C60   :   27;
  C61   :   3F;
  C62   :   3F;
  C63   :   78;
  C64   :   3C;
  C65   :   1F;
  C66   :   1F;
  C67   :   73;
  C68   :   38;
  C69   :   30;
  C6A   :   40;
  C6B   :   C7;
  C6C   :    7;
  C6D   :   66;
  C6E   :   E0;
  C6F   :   6C;
  C70   :   9F;
  C71   :   3E;
  C72   :   7C;
  C73   :   FC;
  C74   :   F8;
  C75   :   F8;
  C76   :   C0;
  C77   :   40;
  C78   :   60;
  C79   :   C0;
  C7A   :   80;
  C7B   :    4;
  C7C   :   9E;
  C7D   :   FF;
  C7E   :   F0;
  C7F   :   F8;
  C80   :   7F;
  C81   :   7E;
  C82   :   78;
  C83   :    1;
  C84   :    7;
  C85   :   1F;
  C86   :   3C;
  C87   :   7C;
  C88   :   24;
  C89   :    1;
  C8A   :    7;
  C8B   :   FE;
  C8C   :   FF;
  C8D   :   7F;
  C8E   :   3F;
  C8F   :   7F;
  C90   :   FC;
  C91   :   F8;
  C92   :   A0;
  C93   :   FE;
  C94   :   FC;
  C95   :   F0;
  C96   :   80;
  C97   :    0;
  C98   :   CF;
  C99   :   7A;
  C9A   :    A;
  C9B   :   FE;
  C9C   :   FC;
  C9D   :    0;
  C9E   :    0;
  C9F   :    0;
  CA0   :   7E;
  CA1   :   7F;
  CA2   :   7F;
  CA3   :   3F;
  CA4   :   1F;
  CA5   :   8F;
  CA6   :   8F;
  CA7   :   18;
  CA8   :   85;
  CA9   :   86;
  CAA   :   83;
  CAB   :   C3;
  CAC   :   E1;
  CAD   :   70;
  CAE   :   70;
  CAF   :   E0;
  CB0   :   9F;
  CB1   :   3E;
  CB2   :   7C;
  CB3   :   F8;
  CB4   :   F8;
  CB5   :   3C;
  CB6   :   18;
  CB7   :   F8;
  CB8   :   60;
  CB9   :   C0;
  CBA   :   80;
  CBB   :    0;
  CBC   :   98;
  CBD   :   FC;
  CBE   :   FE;
  CBF   :   FF;
  CC0   :   7F;
  CC1   :   7F;
  CC2   :   78;
  CC3   :    1;
  CC4   :    7;
  CC5   :   13;
  CC6   :   F1;
  CC7   :    3;
  CC8   :   24;
  CC9   :    0;
  CCA   :    7;
  CCB   :   FE;
  CCC   :   FF;
  CCD   :   7F;
  CCE   :   FF;
  CCF   :    3;
  CD0   :    0;
  CD1   :    0;
  CD2   :   1C;
  CD3   :   1D;
  CD4   :   1B;
  CD5   :   C3;
  CD6   :   E3;
  CD7   :   E1;
  CD8   :    3;
  CD9   :    F;
  CDA   :   23;
  CDB   :   62;
  CDC   :   64;
  CDD   :   3C;
  CDE   :   1C;
  CDF   :   1E;
  CE0   :   E0;
  CE1   :   CD;
  CE2   :   1D;
  CE3   :   4F;
  CE4   :   EE;
  CE5   :   FF;
  CE6   :   3F;
  CE7   :   3F;
  CE8   :   1F;
  CE9   :   3D;
  CEA   :   6D;
  CEB   :   4F;
  CEC   :   EE;
  CED   :   F3;
  CEE   :   20;
  CEF   :    3;
  CF0   :   3F;
  CF1   :   3F;
  CF2   :    0;
  CF3   :    0;
  CF4   :   70;
  CF5   :   B8;
  CF6   :   FC;
  CF7   :   FC;
  CF8   :    7;
  CF9   :    7;
  CFA   :   1F;
  CFB   :   3F;
  CFC   :    F;
  CFD   :   47;
  CFE   :    3;
  CFF   :    0;
  D00   :    7;
  D01   :    F;
  D02   :   1F;
  D03   :   3F;
  D04   :   3E;
  D05   :   7C;
  D06   :   78;
  D07   :   78;
  D08   :    0;
  D09   :    0;
  D0A   :    3;
  D0B   :    7;
  D0C   :    F;
  D0D   :    F;
  D0E   :   1F;
  D0F   :   1F;
  D10   :   3F;
  D11   :   5C;
  D12   :   39;
  D13   :   3B;
  D14   :   BF;
  D15   :   FF;
  D16   :   FE;
  D17   :   FE;
  D18   :    0;
  D19   :   23;
  D1A   :   57;
  D1B   :   4F;
  D1C   :   57;
  D1D   :   2F;
  D1E   :   DF;
  D1F   :   21;
  D20   :   C0;
  D21   :   C0;
  D22   :   80;
  D23   :   80;
  D24   :   80;
  D25   :   80;
  D26   :    0;
  D27   :    0;
  D28   :    0;
  D29   :    0;
  D2A   :    0;
  D2B   :    0;
  D2C   :   80;
  D2D   :   80;
  D2E   :    0;
  D2F   :    0;
  D30   :   FE;
  D31   :   FC;
  D32   :   61;
  D33   :    F;
  D34   :   7F;
  D35   :   3F;
  D36   :   1F;
  D37   :   1E;
  D38   :   23;
  D39   :    F;
  D3A   :   1E;
  D3B   :   F0;
  D3C   :   1C;
  D3D   :   3F;
  D3E   :   1F;
  D3F   :   1E;
  D40   :   F0;
  D41   :   78;
  D42   :   E4;
  D43   :   C8;
  D44   :   CC;
  D45   :   BE;
  D46   :   BE;
  D47   :   3E;
  D48   :    0;
  D49   :   80;
  D4A   :   18;
  D4B   :   30;
  D4C   :   34;
  D4D   :   FE;
  D4E   :   FE;
  D4F   :   FE;
  D50   :    0;
  D51   :    1;
  D52   :    0;
  D53   :    7;
  D54   :    7;
  D55   :    7;
  D56   :    7;
  D57   :   1F;
  D58   :    0;
  D59   :    0;
  D5A   :    1;
  D5B   :    4;
  D5C   :    6;
  D5D   :    6;
  D5E   :    7;
  D5F   :    7;
  D60   :    0;
  D61   :    0;
  D62   :    F;
  D63   :   3F;
  D64   :   3F;
  D65   :    F;
  D66   :    0;
  D67   :    0;
  D68   :    F;
  D69   :   3F;
  D6A   :   7F;
  D6B   :   F8;
  D6C   :   F8;
  D6D   :   7F;
  D6E   :   3F;
  D6F   :    F;
  D70   :   78;
  D71   :   7C;
  D72   :   7E;
  D73   :   7F;
  D74   :   3F;
  D75   :   3F;
  D76   :   1B;
  D77   :    9;
  D78   :   1F;
  D79   :   1F;
  D7A   :   1F;
  D7B   :    B;
  D7C   :    1;
  D7D   :    1;
  D7E   :    0;
  D7F   :    0;
  D80   :    C;
  D81   :    0;
  D82   :    0;
  D83   :    0;
  D84   :    7;
  D85   :   7F;
  D86   :   7C;
  D87   :    0;
  D88   :    3;
  D89   :   1F;
  D8A   :   3F;
  D8B   :   3F;
  D8C   :   78;
  D8D   :    0;
  D8E   :    3;
  D8F   :   FF;
  D90   :    1;
  D91   :   E1;
  D92   :   71;
  D93   :   79;
  D94   :   3D;
  D95   :   3D;
  D96   :   1F;
  D97   :    3;
  D98   :    0;
  D99   :    0;
  D9A   :    0;
  D9B   :    0;
  D9C   :    0;
  D9D   :    0;
  D9E   :    0;
  D9F   :    0;
  DA0   :   3F;
  DA1   :   3F;
  DA2   :   1F;
  DA3   :   1B;
  DA4   :   36;
  DA5   :   30;
  DA6   :   7F;
  DA7   :   3F;
  DA8   :   23;
  DA9   :   27;
  DAA   :   1F;
  DAB   :    7;
  DAC   :    F;
  DAD   :   1F;
  DAE   :   7F;
  DAF   :   3F;
  DB0   :   F8;
  DB1   :   F8;
  DB2   :   F8;
  DB3   :   B8;
  DB4   :   18;
  DB5   :   D8;
  DB6   :   D8;
  DB7   :   B8;
  DB8   :   E0;
  DB9   :   80;
  DBA   :   80;
  DBB   :   40;
  DBC   :   E0;
  DBD   :   E0;
  DBE   :   E0;
  DBF   :   C0;
  DC0   :    1;
  DC1   :    2;
  DC2   :    4;
  DC3   :    4;
  DC4   :    8;
  DC5   :    8;
  DC6   :   10;
  DC7   :   10;
  DC8   :    3;
  DC9   :    7;
  DCA   :    F;
  DCB   :   1F;
  DCC   :   3F;
  DCD   :   7F;
  DCE   :   FF;
  DCF   :   1F;
  DD0   :    0;
  DD1   :    F;
  DD2   :   13;
  DD3   :    D;
  DD4   :    D;
  DD5   :   13;
  DD6   :    C;
  DD7   :   20;
  DD8   :   1F;
  DD9   :   10;
  DDA   :    C;
  DDB   :   12;
  DDC   :   12;
  DDD   :   2C;
  DDE   :   3F;
  DDF   :   3F;
  DE0   :    0;
  DE1   :   24;
  DE2   :    0;
  DE3   :   24;
  DE4   :    0;
  DE5   :    4;
  DE6   :    0;
  DE7   :    0;
  DE8   :   37;
  DE9   :   36;
  DEA   :   36;
  DEB   :   36;
  DEC   :   16;
  DED   :   16;
  DEE   :   12;
  DEF   :    2;
  DF0   :    F;
  DF1   :   41;
  DF2   :    0;
  DF3   :   88;
  DF4   :    0;
  DF5   :   44;
  DF6   :    0;
  DF7   :    0;
  DF8   :   10;
  DF9   :   7E;
  DFA   :   FF;
  DFB   :   FF;
  DFC   :   F6;
  DFD   :   76;
  DFE   :   3A;
  DFF   :   1A;
  E00   :   38;
  E01   :   7C;
  E02   :   FE;
  E03   :   FE;
  E04   :   3B;
  E05   :    3;
  E06   :    3;
  E07   :    3;
  E08   :    0;
  E09   :    0;
  E0A   :   38;
  E0B   :    4;
  E0C   :    0;
  E0D   :    0;
  E0E   :    0;
  E0F   :    0;
  E10   :    3;
  E11   :   33;
  E12   :   7B;
  E13   :   7F;
  E14   :   FF;
  E15   :   FB;
  E16   :    3;
  E17   :    3;
  E18   :    0;
  E19   :    0;
  E1A   :    0;
  E1B   :   38;
  E1C   :   40;
  E1D   :    0;
  E1E   :    0;
  E1F   :    0;
  E20   :   DC;
  E21   :   C0;
  E22   :   E0;
  E23   :   E0;
  E24   :   E0;
  E25   :   E0;
  E26   :   E0;
  E27   :   C0;
  E28   :   FC;
  E29   :   A0;
  E2A   :   80;
  E2B   :   80;
  E2C   :    0;
  E2D   :    0;
  E2E   :    0;
  E2F   :    0;
  E30   :   3F;
  E31   :   5F;
  E32   :   3F;
  E33   :   3F;
  E34   :   BB;
  E35   :   F8;
  E36   :   FE;
  E37   :   FE;
  E38   :    7;
  E39   :   27;
  E3A   :   57;
  E3B   :   4F;
  E3C   :   57;
  E3D   :   27;
  E3E   :   C1;
  E3F   :   21;
  E40   :   1F;
  E41   :    F;
  E42   :    F;
  E43   :   1F;
  E44   :   1F;
  E45   :   1E;
  E46   :   38;
  E47   :   30;
  E48   :   1D;
  E49   :    F;
  E4A   :    F;
  E4B   :   1F;
  E4C   :   1F;
  E4D   :   1E;
  E4E   :   38;
  E4F   :   30;
  E50   :    0;
  E51   :   20;
  E52   :   60;
  E53   :   60;
  E54   :   70;
  E55   :   F0;
  E56   :   F8;
  E57   :   F8;
  E58   :    0;
  E59   :    0;
  E5A   :   38;
  E5B   :   10;
  E5C   :   4C;
  E5D   :   18;
  E5E   :   86;
  E5F   :   24;
  E60   :   F8;
  E61   :   FC;
  E62   :   FC;
  E63   :   7E;
  E64   :   7E;
  E65   :   3E;
  E66   :   1F;
  E67   :    7;
  E68   :    0;
  E69   :   42;
  E6A   :    A;
  E6B   :   40;
  E6C   :   10;
  E6D   :    2;
  E6E   :    8;
  E6F   :    2;
  E70   :    0;
  E71   :   C0;
  E72   :   70;
  E73   :   B8;
  E74   :   F4;
  E75   :   F2;
  E76   :   F5;
  E77   :   7B;
  E78   :    0;
  E79   :    0;
  E7A   :   80;
  E7B   :   40;
  E7C   :    8;
  E7D   :    C;
  E7E   :    A;
  E7F   :   84;
  E80   :    0;
  E81   :   DF;
  E82   :   10;
  E83   :   FF;
  E84   :   DF;
  E85   :   FF;
  E86   :   FF;
  E87   :   F9;
  E88   :    0;
  E89   :    0;
  E8A   :   CF;
  E8B   :   20;
  E8C   :   20;
  E8D   :   20;
  E8E   :   26;
  E8F   :   2E;
  E90   :   1F;
  E91   :   1F;
  E92   :   3E;
  E93   :   FC;
  E94   :   F8;
  E95   :   F0;
  E96   :   C0;
  E97   :    0;
  E98   :   E0;
  E99   :   E0;
  E9A   :   C0;
  E9B   :    0;
  E9C   :    0;
  E9D   :    0;
  E9E   :    0;
  E9F   :    0;
  EA0   :   F8;
  EA1   :   FC;
  EA2   :   FE;
  EA3   :   FF;
  EA4   :   FF;
  EA5   :   DF;
  EA6   :   DF;
  EA7   :    0;
  EA8   :   2F;
  EA9   :   23;
  EAA   :   21;
  EAB   :   20;
  EAC   :   20;
  EAD   :    0;
  EAE   :    0;
  EAF   :    0;
  EB0   :   C1;
  EB1   :   F1;
  EB2   :   79;
  EB3   :   7D;
  EB4   :   3D;
  EB5   :   3F;
  EB6   :   1F;
  EB7   :    3;
  EB8   :   C1;
  EB9   :   B1;
  EBA   :   59;
  EBB   :   6D;
  EBC   :   35;
  EBD   :   3B;
  EBE   :   1F;
  EBF   :    3;
  EC0   :    2;
  EC1   :    6;
  EC2   :    E;
  EC3   :    E;
  EC4   :   1E;
  EC5   :   1E;
  EC6   :   3E;
  EC7   :   3E;
  EC8   :    0;
  EC9   :    2;
  ECA   :    0;
  ECB   :    8;
  ECC   :    2;
  ECD   :    0;
  ECE   :   28;
  ECF   :    0;
  ED0   :   3E;
  ED1   :   3E;
  ED2   :   3E;
  ED3   :   3E;
  ED4   :   1E;
  ED5   :   1E;
  ED6   :    E;
  ED7   :    2;
  ED8   :    4;
  ED9   :   10;
  EDA   :    2;
  EDB   :   10;
  EDC   :    4;
  EDD   :    0;
  EDE   :    A;
  EDF   :    0;
  EE0   :   C1;
  EE1   :   F1;
  EE2   :   79;
  EE3   :   7D;
  EE4   :   3D;
  EE5   :   3F;
  EE6   :   1F;
  EE7   :    3;
  EE8   :   C1;
  EE9   :   B1;
  EEA   :   59;
  EEB   :   6D;
  EEC   :   35;
  EED   :   3B;
  EEE   :   1F;
  EEF   :    3;
  EF0   :   7C;
  EF1   :    0;
  EF2   :    0;
  EF3   :   FF;
  EF4   :   C3;
  EF5   :   7F;
  EF6   :   1F;
  EF7   :    3;
  EF8   :    0;
  EF9   :    F;
  EFA   :   1F;
  EFB   :   FF;
  EFC   :   FC;
  EFD   :   63;
  EFE   :   1F;
  EFF   :    3;
  F00   :   FF;
  F01   :   FF;
  F02   :   7C;
  F03   :    0;
  F04   :    0;
  F05   :   7C;
  F06   :   FF;
  F07   :   FF;
  F08   :    0;
  F09   :    0;
  F0A   :   FE;
  F0B   :   C6;
  F0C   :   C6;
  F0D   :   FE;
  F0E   :    0;
  F0F   :    0;
  F10   :   FF;
  F11   :   FF;
  F12   :    0;
  F13   :    4;
  F14   :    C;
  F15   :   18;
  F16   :   30;
  F17   :    0;
  F18   :    0;
  F19   :    0;
  F1A   :    6;
  F1B   :    6;
  F1C   :    C;
  F1D   :   18;
  F1E   :   70;
  F1F   :   60;
  F20   :   FF;
  F21   :   FF;
  F22   :    0;
  F23   :    4;
  F24   :    4;
  F25   :    4;
  F26   :    8;
  F27   :    8;
  F28   :    0;
  F29   :    0;
  F2A   :    6;
  F2B   :    6;
  F2C   :    4;
  F2D   :    4;
  F2E   :    8;
  F2F   :    8;
  F30   :    8;
  F31   :   10;
  F32   :   10;
  F33   :    0;
  F34   :    0;
  F35   :   10;
  F36   :   10;
  F37   :    8;
  F38   :    8;
  F39   :   10;
  F3A   :   30;
  F3B   :   30;
  F3C   :   30;
  F3D   :   30;
  F3E   :   10;
  F3F   :    8;
  F40   :   7F;
  F41   :   3F;
  F42   :   3F;
  F43   :   3E;
  F44   :   1F;
  F45   :    F;
  F46   :    3;
  F47   :    0;
  F48   :    0;
  F49   :    0;
  F4A   :    1;
  F4B   :    3;
  F4C   :    1;
  F4D   :    0;
  F4E   :    0;
  F4F   :    0;
  F50   :    3;
  F51   :    F;
  F52   :   FF;
  F53   :   7F;
  F54   :   7F;
  F55   :   7F;
  F56   :   7F;
  F57   :   7F;
  F58   :    3;
  F59   :    E;
  F5A   :   F8;
  F5B   :    0;
  F5C   :    0;
  F5D   :    0;
  F5E   :    0;
  F5F   :    0;
  F60   :    0;
  F61   :    0;
  F62   :    0;
  F63   :    0;
  F64   :    0;
  F65   :    0;
  F66   :    0;
  F67   :    0;
  F68   :   22;
  F69   :   65;
  F6A   :   25;
  F6B   :   25;
  F6C   :   25;
  F6D   :   25;
  F6E   :   77;
  F6F   :   72;
  F70   :    0;
  F71   :    0;
  F72   :    0;
  F73   :    0;
  F74   :    0;
  F75   :    0;
  F76   :    0;
  F77   :    0;
  F78   :   62;
  F79   :   95;
  F7A   :   15;
  F7B   :   25;
  F7C   :   45;
  F7D   :   85;
  F7E   :   F7;
  F7F   :   F2;
  F80   :    0;
  F81   :    0;
  F82   :    0;
  F83   :    0;
  F84   :    0;
  F85   :    0;
  F86   :    0;
  F87   :    0;
  F88   :   A2;
  F89   :   A5;
  F8A   :   A5;
  F8B   :   A5;
  F8C   :   F5;
  F8D   :   F5;
  F8E   :   27;
  F8F   :   22;
  F90   :    0;
  F91   :    0;
  F92   :    0;
  F93   :    0;
  F94   :    0;
  F95   :    0;
  F96   :    0;
  F97   :    0;
  F98   :   F2;
  F99   :   85;
  F9A   :   85;
  F9B   :   E5;
  F9C   :   15;
  F9D   :   15;
  F9E   :   F7;
  F9F   :   E2;
  FA0   :    0;
  FA1   :    0;
  FA2   :    0;
  FA3   :    0;
  FA4   :    0;
  FA5   :    0;
  FA6   :    0;
  FA7   :    0;
  FA8   :   62;
  FA9   :   95;
  FAA   :   55;
  FAB   :   65;
  FAC   :   B5;
  FAD   :   95;
  FAE   :   97;
  FAF   :   62;
  FB0   :    0;
  FB1   :    0;
  FB2   :    0;
  FB3   :    0;
  FB4   :    0;
  FB5   :    0;
  FB6   :    0;
  FB7   :    0;
  FB8   :   20;
  FB9   :   50;
  FBA   :   50;
  FBB   :   50;
  FBC   :   50;
  FBD   :   50;
  FBE   :   70;
  FBF   :   20;
  FC0   :    0;
  FC1   :    0;
  FC2   :    0;
  FC3   :    0;
  FC4   :    0;
  FC5   :    0;
  FC6   :    0;
  FC7   :    0;
  FC8   :    0;
  FC9   :    0;
  FCA   :    0;
  FCB   :    0;
  FCC   :    0;
  FCD   :    0;
  FCE   :    0;
  FCF   :    0;
  FD0   :    0;
  FD1   :    0;
  FD2   :    0;
  FD3   :    0;
  FD4   :    0;
  FD5   :    0;
  FD6   :    0;
  FD7   :    0;
  FD8   :   66;
  FD9   :   E6;
  FDA   :   66;
  FDB   :   66;
  FDC   :   66;
  FDD   :   67;
  FDE   :   F3;
  FDF   :    0;
  FE0   :    0;
  FE1   :    0;
  FE2   :    0;
  FE3   :    0;
  FE4   :    0;
  FE5   :    0;
  FE6   :    0;
  FE7   :    0;
  FE8   :   5E;
  FE9   :   59;
  FEA   :   59;
  FEB   :   59;
  FEC   :   5E;
  FED   :   D8;
  FEE   :   98;
  FEF   :    0;
  FF0   :    0;
  FF1   :    0;
  FF2   :    0;
  FF3   :    0;
  FF4   :    0;
  FF5   :   7C;
  FF6   :   38;
  FF7   :    0;
  FF8   :    0;
  FF9   :    0;
  FFA   :    0;
  FFB   :    0;
  FFC   :    0;
  FFD   :    4;
  FFE   :    8;
  FFF   :    0;
 1000   :   38;
 1001   :   4C;
 1002   :   C6;
 1003   :   C6;
 1004   :   C6;
 1005   :   64;
 1006   :   38;
 1007   :    0;
 1008   :    0;
 1009   :    0;
 100A   :    0;
 100B   :    0;
 100C   :    0;
 100D   :    0;
 100E   :    0;
 100F   :    0;
 1010   :   18;
 1011   :   38;
 1012   :   18;
 1013   :   18;
 1014   :   18;
 1015   :   18;
 1016   :   7E;
 1017   :    0;
 1018   :    0;
 1019   :    0;
 101A   :    0;
 101B   :    0;
 101C   :    0;
 101D   :    0;
 101E   :    0;
 101F   :    0;
 1020   :   7C;
 1021   :   C6;
 1022   :    E;
 1023   :   3C;
 1024   :   78;
 1025   :   E0;
 1026   :   FE;
 1027   :    0;
 1028   :    0;
 1029   :    0;
 102A   :    0;
 102B   :    0;
 102C   :    0;
 102D   :    0;
 102E   :    0;
 102F   :    0;
 1030   :   7E;
 1031   :    C;
 1032   :   18;
 1033   :   3C;
 1034   :    6;
 1035   :   C6;
 1036   :   7C;
 1037   :    0;
 1038   :    0;
 1039   :    0;
 103A   :    0;
 103B   :    0;
 103C   :    0;
 103D   :    0;
 103E   :    0;
 103F   :    0;
 1040   :   1C;
 1041   :   3C;
 1042   :   6C;
 1043   :   CC;
 1044   :   FE;
 1045   :    C;
 1046   :    C;
 1047   :    0;
 1048   :    0;
 1049   :    0;
 104A   :    0;
 104B   :    0;
 104C   :    0;
 104D   :    0;
 104E   :    0;
 104F   :    0;
 1050   :   FC;
 1051   :   C0;
 1052   :   FC;
 1053   :    6;
 1054   :    6;
 1055   :   C6;
 1056   :   7C;
 1057   :    0;
 1058   :    0;
 1059   :    0;
 105A   :    0;
 105B   :    0;
 105C   :    0;
 105D   :    0;
 105E   :    0;
 105F   :    0;
 1060   :   3C;
 1061   :   60;
 1062   :   C0;
 1063   :   FC;
 1064   :   C6;
 1065   :   C6;
 1066   :   7C;
 1067   :    0;
 1068   :    0;
 1069   :    0;
 106A   :    0;
 106B   :    0;
 106C   :    0;
 106D   :    0;
 106E   :    0;
 106F   :    0;
 1070   :   FE;
 1071   :   C6;
 1072   :    C;
 1073   :   18;
 1074   :   30;
 1075   :   30;
 1076   :   30;
 1077   :    0;
 1078   :    0;
 1079   :    0;
 107A   :    0;
 107B   :    0;
 107C   :    0;
 107D   :    0;
 107E   :    0;
 107F   :    0;
 1080   :   7C;
 1081   :   C6;
 1082   :   C6;
 1083   :   7C;
 1084   :   C6;
 1085   :   C6;
 1086   :   7C;
 1087   :    0;
 1088   :    0;
 1089   :    0;
 108A   :    0;
 108B   :    0;
 108C   :    0;
 108D   :    0;
 108E   :    0;
 108F   :    0;
 1090   :   7C;
 1091   :   C6;
 1092   :   C6;
 1093   :   7E;
 1094   :    6;
 1095   :    C;
 1096   :   78;
 1097   :    0;
 1098   :    0;
 1099   :    0;
 109A   :    0;
 109B   :    0;
 109C   :    0;
 109D   :    0;
 109E   :    0;
 109F   :    0;
 10A0   :   38;
 10A1   :   6C;
 10A2   :   C6;
 10A3   :   C6;
 10A4   :   FE;
 10A5   :   C6;
 10A6   :   C6;
 10A7   :    0;
 10A8   :    0;
 10A9   :    0;
 10AA   :    0;
 10AB   :    0;
 10AC   :    0;
 10AD   :    0;
 10AE   :    0;
 10AF   :    0;
 10B0   :   FC;
 10B1   :   C6;
 10B2   :   C6;
 10B3   :   FC;
 10B4   :   C6;
 10B5   :   C6;
 10B6   :   FC;
 10B7   :    0;
 10B8   :    0;
 10B9   :    0;
 10BA   :    0;
 10BB   :    0;
 10BC   :    0;
 10BD   :    0;
 10BE   :    0;
 10BF   :    0;
 10C0   :   3C;
 10C1   :   66;
 10C2   :   C0;
 10C3   :   C0;
 10C4   :   C0;
 10C5   :   66;
 10C6   :   3C;
 10C7   :    0;
 10C8   :    0;
 10C9   :    0;
 10CA   :    0;
 10CB   :    0;
 10CC   :    0;
 10CD   :    0;
 10CE   :    0;
 10CF   :    0;
 10D0   :   F8;
 10D1   :   CC;
 10D2   :   C6;
 10D3   :   C6;
 10D4   :   C6;
 10D5   :   CC;
 10D6   :   F8;
 10D7   :    0;
 10D8   :    0;
 10D9   :    0;
 10DA   :    0;
 10DB   :    0;
 10DC   :    0;
 10DD   :    0;
 10DE   :    0;
 10DF   :    0;
 10E0   :   FE;
 10E1   :   C0;
 10E2   :   C0;
 10E3   :   FC;
 10E4   :   C0;
 10E5   :   C0;
 10E6   :   FE;
 10E7   :    0;
 10E8   :    0;
 10E9   :    0;
 10EA   :    0;
 10EB   :    0;
 10EC   :    0;
 10ED   :    0;
 10EE   :    0;
 10EF   :    0;
 10F0   :   FE;
 10F1   :   C0;
 10F2   :   C0;
 10F3   :   FC;
 10F4   :   C0;
 10F5   :   C0;
 10F6   :   C0;
 10F7   :    0;
 10F8   :    0;
 10F9   :    0;
 10FA   :    0;
 10FB   :    0;
 10FC   :    0;
 10FD   :    0;
 10FE   :    0;
 10FF   :    0;
 1100   :   3E;
 1101   :   60;
 1102   :   C0;
 1103   :   CE;
 1104   :   C6;
 1105   :   66;
 1106   :   3E;
 1107   :    0;
 1108   :    0;
 1109   :    0;
 110A   :    0;
 110B   :    0;
 110C   :    0;
 110D   :    0;
 110E   :    0;
 110F   :    0;
 1110   :   C6;
 1111   :   C6;
 1112   :   C6;
 1113   :   FE;
 1114   :   C6;
 1115   :   C6;
 1116   :   C6;
 1117   :    0;
 1118   :    0;
 1119   :    0;
 111A   :    0;
 111B   :    0;
 111C   :    0;
 111D   :    0;
 111E   :    0;
 111F   :    0;
 1120   :   7E;
 1121   :   18;
 1122   :   18;
 1123   :   18;
 1124   :   18;
 1125   :   18;
 1126   :   7E;
 1127   :    0;
 1128   :    0;
 1129   :    0;
 112A   :    0;
 112B   :    0;
 112C   :    0;
 112D   :    0;
 112E   :    0;
 112F   :    0;
 1130   :   1E;
 1131   :    6;
 1132   :    6;
 1133   :    6;
 1134   :   C6;
 1135   :   C6;
 1136   :   7C;
 1137   :    0;
 1138   :    0;
 1139   :    0;
 113A   :    0;
 113B   :    0;
 113C   :    0;
 113D   :    0;
 113E   :    0;
 113F   :    0;
 1140   :   C6;
 1141   :   CC;
 1142   :   D8;
 1143   :   F0;
 1144   :   F8;
 1145   :   DC;
 1146   :   CE;
 1147   :    0;
 1148   :    0;
 1149   :    0;
 114A   :    0;
 114B   :    0;
 114C   :    0;
 114D   :    0;
 114E   :    0;
 114F   :    0;
 1150   :   60;
 1151   :   60;
 1152   :   60;
 1153   :   60;
 1154   :   60;
 1155   :   60;
 1156   :   7E;
 1157   :    0;
 1158   :    0;
 1159   :    0;
 115A   :    0;
 115B   :    0;
 115C   :    0;
 115D   :    0;
 115E   :    0;
 115F   :    0;
 1160   :   C6;
 1161   :   EE;
 1162   :   FE;
 1163   :   FE;
 1164   :   D6;
 1165   :   C6;
 1166   :   C6;
 1167   :    0;
 1168   :    0;
 1169   :    0;
 116A   :    0;
 116B   :    0;
 116C   :    0;
 116D   :    0;
 116E   :    0;
 116F   :    0;
 1170   :   C6;
 1171   :   E6;
 1172   :   F6;
 1173   :   FE;
 1174   :   DE;
 1175   :   CE;
 1176   :   C6;
 1177   :    0;
 1178   :    0;
 1179   :    0;
 117A   :    0;
 117B   :    0;
 117C   :    0;
 117D   :    0;
 117E   :    0;
 117F   :    0;
 1180   :   7C;
 1181   :   C6;
 1182   :   C6;
 1183   :   C6;
 1184   :   C6;
 1185   :   C6;
 1186   :   7C;
 1187   :    0;
 1188   :    0;
 1189   :    0;
 118A   :    0;
 118B   :    0;
 118C   :    0;
 118D   :    0;
 118E   :    0;
 118F   :    0;
 1190   :   FC;
 1191   :   C6;
 1192   :   C6;
 1193   :   C6;
 1194   :   FC;
 1195   :   C0;
 1196   :   C0;
 1197   :    0;
 1198   :    0;
 1199   :    0;
 119A   :    0;
 119B   :    0;
 119C   :    0;
 119D   :    0;
 119E   :    0;
 119F   :    0;
 11A0   :   7C;
 11A1   :   C6;
 11A2   :   C6;
 11A3   :   C6;
 11A4   :   DE;
 11A5   :   CC;
 11A6   :   7A;
 11A7   :    0;
 11A8   :    0;
 11A9   :    0;
 11AA   :    0;
 11AB   :    0;
 11AC   :    0;
 11AD   :    0;
 11AE   :    0;
 11AF   :    0;
 11B0   :   FC;
 11B1   :   C6;
 11B2   :   C6;
 11B3   :   CE;
 11B4   :   F8;
 11B5   :   DC;
 11B6   :   CE;
 11B7   :    0;
 11B8   :    0;
 11B9   :    0;
 11BA   :    0;
 11BB   :    0;
 11BC   :    0;
 11BD   :    0;
 11BE   :    0;
 11BF   :    0;
 11C0   :   78;
 11C1   :   CC;
 11C2   :   C0;
 11C3   :   7C;
 11C4   :    6;
 11C5   :   C6;
 11C6   :   7C;
 11C7   :    0;
 11C8   :    0;
 11C9   :    0;
 11CA   :    0;
 11CB   :    0;
 11CC   :    0;
 11CD   :    0;
 11CE   :    0;
 11CF   :    0;
 11D0   :   7E;
 11D1   :   18;
 11D2   :   18;
 11D3   :   18;
 11D4   :   18;
 11D5   :   18;
 11D6   :   18;
 11D7   :    0;
 11D8   :    0;
 11D9   :    0;
 11DA   :    0;
 11DB   :    0;
 11DC   :    0;
 11DD   :    0;
 11DE   :    0;
 11DF   :    0;
 11E0   :   C6;
 11E1   :   C6;
 11E2   :   C6;
 11E3   :   C6;
 11E4   :   C6;
 11E5   :   C6;
 11E6   :   7C;
 11E7   :    0;
 11E8   :    0;
 11E9   :    0;
 11EA   :    0;
 11EB   :    0;
 11EC   :    0;
 11ED   :    0;
 11EE   :    0;
 11EF   :    0;
 11F0   :   C6;
 11F1   :   C6;
 11F2   :   C6;
 11F3   :   EE;
 11F4   :   7C;
 11F5   :   38;
 11F6   :   10;
 11F7   :    0;
 11F8   :    0;
 11F9   :    0;
 11FA   :    0;
 11FB   :    0;
 11FC   :    0;
 11FD   :    0;
 11FE   :    0;
 11FF   :    0;
 1200   :   C6;
 1201   :   C6;
 1202   :   D6;
 1203   :   FE;
 1204   :   FE;
 1205   :   EE;
 1206   :   C6;
 1207   :    0;
 1208   :    0;
 1209   :    0;
 120A   :    0;
 120B   :    0;
 120C   :    0;
 120D   :    0;
 120E   :    0;
 120F   :    0;
 1210   :   C6;
 1211   :   EE;
 1212   :   7C;
 1213   :   38;
 1214   :   7C;
 1215   :   EE;
 1216   :   C6;
 1217   :    0;
 1218   :    0;
 1219   :    0;
 121A   :    0;
 121B   :    0;
 121C   :    0;
 121D   :    0;
 121E   :    0;
 121F   :    0;
 1220   :   66;
 1221   :   66;
 1222   :   66;
 1223   :   3C;
 1224   :   18;
 1225   :   18;
 1226   :   18;
 1227   :    0;
 1228   :    0;
 1229   :    0;
 122A   :    0;
 122B   :    0;
 122C   :    0;
 122D   :    0;
 122E   :    0;
 122F   :    0;
 1230   :   FE;
 1231   :    E;
 1232   :   1C;
 1233   :   38;
 1234   :   70;
 1235   :   E0;
 1236   :   FE;
 1237   :    0;
 1238   :    0;
 1239   :    0;
 123A   :    0;
 123B   :    0;
 123C   :    0;
 123D   :    0;
 123E   :    0;
 123F   :    0;
 1240   :    0;
 1241   :    0;
 1242   :    0;
 1243   :    0;
 1244   :    0;
 1245   :    0;
 1246   :    0;
 1247   :    0;
 1248   :    0;
 1249   :    0;
 124A   :    0;
 124B   :    0;
 124C   :    0;
 124D   :    0;
 124E   :    0;
 124F   :    0;
 1250   :   FF;
 1251   :   FF;
 1252   :   FF;
 1253   :   FF;
 1254   :   FF;
 1255   :   FF;
 1256   :   FF;
 1257   :   FF;
 1258   :    0;
 1259   :    0;
 125A   :    0;
 125B   :    0;
 125C   :    0;
 125D   :    0;
 125E   :    0;
 125F   :    0;
 1260   :    0;
 1261   :    0;
 1262   :    0;
 1263   :    0;
 1264   :    0;
 1265   :    0;
 1266   :    0;
 1267   :    0;
 1268   :   FF;
 1269   :   FF;
 126A   :   FF;
 126B   :   FF;
 126C   :   FF;
 126D   :   FF;
 126E   :   FF;
 126F   :   FF;
 1270   :   FF;
 1271   :   FF;
 1272   :   FF;
 1273   :   FF;
 1274   :   FF;
 1275   :   FF;
 1276   :   FF;
 1277   :   FF;
 1278   :   FF;
 1279   :   FF;
 127A   :   FF;
 127B   :   FF;
 127C   :   FF;
 127D   :   FF;
 127E   :   FF;
 127F   :   FF;
 1280   :    0;
 1281   :    0;
 1282   :    0;
 1283   :   7E;
 1284   :   7E;
 1285   :    0;
 1286   :    0;
 1287   :    0;
 1288   :    0;
 1289   :    0;
 128A   :    0;
 128B   :    0;
 128C   :    0;
 128D   :    0;
 128E   :    0;
 128F   :    0;
 1290   :    0;
 1291   :    0;
 1292   :   44;
 1293   :   28;
 1294   :   10;
 1295   :   28;
 1296   :   44;
 1297   :    0;
 1298   :    0;
 1299   :    0;
 129A   :    0;
 129B   :    0;
 129C   :    0;
 129D   :    0;
 129E   :    0;
 129F   :    0;
 12A0   :   FF;
 12A1   :   FF;
 12A2   :   FF;
 12A3   :   FF;
 12A4   :   FF;
 12A5   :   FF;
 12A6   :   FF;
 12A7   :   FF;
 12A8   :   7F;
 12A9   :   7F;
 12AA   :   7F;
 12AB   :   7F;
 12AC   :   7F;
 12AD   :   7F;
 12AE   :   7F;
 12AF   :   7F;
 12B0   :   18;
 12B1   :   3C;
 12B2   :   3C;
 12B3   :   3C;
 12B4   :   18;
 12B5   :   18;
 12B6   :    0;
 12B7   :   18;
 12B8   :    0;
 12B9   :    0;
 12BA   :    0;
 12BB   :    0;
 12BC   :    0;
 12BD   :    0;
 12BE   :    0;
 12BF   :    0;
 12C0   :   FF;
 12C1   :   7F;
 12C2   :   7F;
 12C3   :   7F;
 12C4   :   7F;
 12C5   :   FF;
 12C6   :   E3;
 12C7   :   C1;
 12C8   :   FF;
 12C9   :   80;
 12CA   :   80;
 12CB   :   80;
 12CC   :   80;
 12CD   :    0;
 12CE   :   1C;
 12CF   :   3E;
 12D0   :   80;
 12D1   :   80;
 12D2   :   80;
 12D3   :   C1;
 12D4   :   E3;
 12D5   :   FF;
 12D6   :   FF;
 12D7   :   FF;
 12D8   :   7F;
 12D9   :   7F;
 12DA   :   7F;
 12DB   :   3E;
 12DC   :   1C;
 12DD   :    0;
 12DE   :    0;
 12DF   :   FF;
 12E0   :   38;
 12E1   :   7C;
 12E2   :   7C;
 12E3   :   7C;
 12E4   :   7C;
 12E5   :   7C;
 12E6   :   38;
 12E7   :    0;
 12E8   :    8;
 12E9   :    4;
 12EA   :    4;
 12EB   :    4;
 12EC   :    4;
 12ED   :    4;
 12EE   :    8;
 12EF   :    0;
 12F0   :    3;
 12F1   :    6;
 12F2   :    C;
 12F3   :    C;
 12F4   :    8;
 12F5   :    8;
 12F6   :    4;
 12F7   :    3;
 12F8   :    3;
 12F9   :    5;
 12FA   :    B;
 12FB   :    B;
 12FC   :    F;
 12FD   :    F;
 12FE   :    7;
 12FF   :    3;
 1300   :    1;
 1301   :    2;
 1302   :    4;
 1303   :    8;
 1304   :   10;
 1305   :   20;
 1306   :   40;
 1307   :   80;
 1308   :    1;
 1309   :    3;
 130A   :    7;
 130B   :    F;
 130C   :   1F;
 130D   :   3F;
 130E   :   7F;
 130F   :   FF;
 1310   :    0;
 1311   :    0;
 1312   :    0;
 1313   :    0;
 1314   :    0;
 1315   :    7;
 1316   :   38;
 1317   :   C0;
 1318   :    0;
 1319   :    0;
 131A   :    0;
 131B   :    0;
 131C   :    0;
 131D   :    7;
 131E   :   3F;
 131F   :   FF;
 1320   :    0;
 1321   :    0;
 1322   :    0;
 1323   :    0;
 1324   :    0;
 1325   :   E0;
 1326   :   1C;
 1327   :    3;
 1328   :    0;
 1329   :    0;
 132A   :    0;
 132B   :    0;
 132C   :    0;
 132D   :   E0;
 132E   :   FC;
 132F   :   FF;
 1330   :   80;
 1331   :   40;
 1332   :   20;
 1333   :   10;
 1334   :    8;
 1335   :    4;
 1336   :    2;
 1337   :    1;
 1338   :   80;
 1339   :   C0;
 133A   :   E0;
 133B   :   F0;
 133C   :   F8;
 133D   :   FC;
 133E   :   FE;
 133F   :   FF;
 1340   :    4;
 1341   :    E;
 1342   :    E;
 1343   :    E;
 1344   :   6E;
 1345   :   64;
 1346   :   60;
 1347   :   60;
 1348   :   FF;
 1349   :   FF;
 134A   :   FF;
 134B   :   FF;
 134C   :   FF;
[...]
 3B1F   :   24;
 3B20   :   30;
 3B21   :   26;
 3B22   :   26;
 3B23   :   26;
 3B24   :   26;
 3B25   :   26;
 3B26   :   26;
 3B27   :   26;
 3B28   :   26;
 3B29   :   33;
 3B2A   :   24;
 3B2B   :   24;
 3B2C   :   24;
 3B2D   :   24;
 3B2E   :   24;
 3B2F   :   24;
 3B30   :   24;
 3B31   :   24;
 3B32   :   24;
 3B33   :   24;
 3B34   :   24;
 3B35   :   24;
 3B36   :   24;
 3B37   :   35;
 3B38   :   25;
 3B39   :   25;
 3B3A   :   25;
 3B3B   :   25;
 3B3C   :   25;
 3B3D   :   25;
 3B3E   :   38;
 3B3F   :   24;
 3B40   :   B4;
 3B41   :   B5;
 3B42   :   B4;
 3B43   :   B5;
 3B44   :   B4;
 3B45   :   B5;
 3B46   :   B4;
 3B47   :   B5;
 3B48   :   B4;
 3B49   :   B5;
 3B4A   :   B4;
 3B4B   :   B5;
 3B4C   :   B4;
 3B4D   :   B5;
 3B4E   :   B4;
 3B4F   :   B5;
 3B50   :   B4;
 3B51   :   B5;
 3B52   :   B4;
 3B53   :   B5;
 3B54   :   B4;
 3B55   :   B5;
 3B56   :   B4;
 3B57   :   B5;
 3B58   :   B4;
 3B59   :   B5;
 3B5A   :   B4;
 3B5B   :   B5;
 3B5C   :   B4;
 3B5D   :   B5;
 3B5E   :   B4;
 3B5F   :   B5;
 3B60   :   B6;
 3B61   :   B7;
 3B62   :   B6;
 3B63   :   B7;
 3B64   :   B6;
 3B65   :   B7;
 3B66   :   B6;
 3B67   :   B7;
 3B68   :   B6;
 3B69   :   B7;
 3B6A   :   B6;
 3B6B   :   B7;
 3B6C   :   B6;
 3B6D   :   B7;
 3B6E   :   B6;
 3B6F   :   B7;
 3B70   :   B6;
 3B71   :   B7;
 3B72   :   B6;
 3B73   :   B7;
 3B74   :   B6;
 3B75   :   B7;
 3B76   :   B6;
 3B77   :   B7;
 3B78   :   B6;
 3B79   :   B7;
 3B7A   :   B6;
 3B7B   :   B7;
 3B7C   :   B6;
 3B7D   :   B7;
 3B7E   :   B6;
 3B7F   :   B7;
 3B80   :   B4;
 3B81   :   B5;
 3B82   :   B4;
 3B83   :   B5;
 3B84   :   B4;
 3B85   :   B5;
 3B86   :   B4;
 3B87   :   B5;
 3B88   :   B4;
 3B89   :   B5;
 3B8A   :   B4;
 3B8B   :   B5;
 3B8C   :   B4;
 3B8D   :   B5;
 3B8E   :   B4;
 3B8F   :   B5;
 3B90   :   B4;
 3B91   :   B5;
 3B92   :   B4;
 3B93   :   B5;
 3B94   :   B4;
 3B95   :   B5;
 3B96   :   B4;
 3B97   :   B5;
 3B98   :   B4;
 3B99   :   B5;
 3B9A   :   B4;
 3B9B   :   B5;
 3B9C   :   B4;
 3B9D   :   B5;
 3B9E   :   B4;
 3B9F   :   B5;
 3BA0   :   B6;
 3BA1   :   B7;
 3BA2   :   B6;
 3BA3   :   B7;
 3BA4   :   B6;
 3BA5   :   B7;
 3BA6   :   B6;
 3BA7   :   B7;
 3BA8   :   B6;
 3BA9   :   B7;
 3BAA   :   B6;
 3BAB   :   B7;
 3BAC   :   B6;
 3BAD   :   B7;
 3BAE   :   B6;
 3BAF   :   B7;
 3BB0   :   B6;
 3BB1   :   B7;
 3BB2   :   B6;
 3BB3   :   B7;
 3BB4   :   B6;
 3BB5   :   B7;
 3BB6   :   B6;
 3BB7   :   B7;
 3BB8   :   B6;
 3BB9   :   B7;
 3BBA   :   B6;
 3BBB   :   B7;
 3BBC   :   B6;
 3BBD   :   B7;
 3BBE   :   B6;
 3BBF   :   B7;
 3BC0   :   AA;
 3BC1   :   AA;
 3BC2   :   EA;
 3BC3   :   AA;
 3BC4   :   AA;
 3BC5   :   AA;
 3BC6   :   AA;
 3BC7   :   AA;
 3BC8   :    0;
 3BC9   :   55;
 3BCA   :   55;
 3BCB   :   55;
 3BCC   :   55;
 3BCD   :   55;
 3BCE   :   55;
 3BCF   :   55;
 3BD0   :   55;
 3BD1   :   55;
 3BD2   :   55;
 3BD3   :   55;
 3BD4   :   55;
 3BD5   :   55;
 3BD6   :   55;
 3BD7   :   55;
 3BD8   :   55;
 3BD9   :   55;
 3BDA   :   55;
 3BDB   :   55;
 3BDC   :   55;
 3BDD   :   55;
 3BDE   :   55;
 3BDF   :    0;
 3BE0   :    0;
 3BE1   :    0;
 3BE2   :   99;
 3BE3   :   AA;
 3BE4   :   AA;
 3BE5   :   AA;
 3BE6   :    0;
 3BE7   :    0;
 3BE8   :    0;
 3BE9   :    0;
 3BEA   :   99;
 3BEB   :   AA;
 3BEC   :   AA;
 3BED   :   AA;
 3BEE   :    0;
 3BEF   :    0;
 3BF0   :   50;
 3BF1   :   50;
 3BF2   :   50;
 3BF3   :   50;
 3BF4   :   50;
 3BF5   :   50;
 3BF6   :   50;
 3BF7   :   50;
 3BF8   :    5;
 3BF9   :    5;
 3BFA   :    5;
 3BFB   :    5;
 3BFC   :    5;
 3BFD   :    5;
 3BFE   :    5;
 3BFF   :    5;
 3C00   :   24;
 3C01   :   24;
 3C02   :   24;
 3C03   :   24;
 3C04   :   24;
 3C05   :   24;
 3C06   :   24;
 3C07   :   24;
 3C08   :   24;
 3C09   :   24;
 3C0A   :   24;
 3C0B   :   24;
 3C0C   :   24;
 3C0D   :   24;
 3C0E   :   24;
 3C0F   :   24;
 3C10   :   24;
 3C11   :   24;
 3C12   :   24;
 3C13   :   24;
 3C14   :   24;
 3C15   :   24;
 3C16   :   24;
 3C17   :   24;
 3C18   :   24;
 3C19   :   24;
 3C1A   :   24;
 3C1B   :   24;
 3C1C   :   24;
 3C1D   :   24;
 3C1E   :   24;
 3C1F   :   24;
 3C20   :   24;
 3C21   :   24;
 3C22   :   24;
 3C23   :   24;
 3C24   :   24;
 3C25   :   24;
 3C26   :   24;
 3C27   :   24;
 3C28   :   24;
 3C29   :   24;
 3C2A   :   24;
 3C2B   :   24;
 3C2C   :   24;
 3C2D   :   24;
 3C2E   :   24;
 3C2F   :   24;
 3C30   :   24;
 3C31   :   24;
 3C32   :   24;
 3C33   :   24;
 3C34   :   24;
 3C35   :   24;
 3C36   :   24;
 3C37   :   24;
 3C38   :   24;
 3C39   :   24;
 3C3A   :   24;
 3C3B   :   24;
 3C3C   :   24;
 3C3D   :   24;
 3C3E   :   24;
 3C3F   :   24;
 3C40   :   24;
 3C41   :   24;
 3C42   :   24;
 3C43   :   24;
 3C44   :   24;
 3C45   :   24;
 3C46   :   24;
 3C47   :   24;
 3C48   :   24;
 3C49   :   24;
 3C4A   :   24;
 3C4B   :   24;
 3C4C   :   24;
 3C4D   :   24;
 3C4E   :   24;
 3C4F   :   24;
 3C50   :   24;
 3C51   :   24;
 3C52   :   24;
 3C53   :   24;
 3C54   :   24;
 3C55   :   24;
 3C56   :   24;
 3C57   :   24;
 3C58   :   24;
 3C59   :   24;
 3C5A   :   24;
 3C5B   :   24;
 3C5C   :   24;
 3C5D   :   24;
 3C5E   :   24;
 3C5F   :   24;
 3C60   :   24;
 3C61   :   24;
 3C62   :   24;
 3C63   :   24;
 3C64   :   24;
 3C65   :   24;
 3C66   :   24;
 3C67   :   24;
 3C68   :   24;
 3C69   :   24;
 3C6A   :   24;
 3C6B   :   24;
 3C6C   :   24;
 3C6D   :   24;
 3C6E   :   24;
 3C6F   :   24;
 3C70   :   24;
 3C71   :   24;
 3C72   :   24;
 3C73   :   24;
 3C74   :   24;
 3C75   :   24;
 3C76   :   24;
 3C77   :   24;
 3C78   :   24;
 3C79   :   24;
 3C7A   :   24;
 3C7B   :   24;
 3C7C   :   24;
 3C7D   :   24;
 3C7E   :   24;
 3C7F   :   24;
 3C80   :   24;
 3C81   :   24;
 3C82   :   24;
 3C83   :   24;
 3C84   :   24;
 3C85   :   24;
 3C86   :   24;
 3C87   :   24;
 3C88   :   36;
 3C89   :   37;
 3C8A   :   24;
 3C8B   :   24;
 3C8C   :   24;
 3C8D   :   24;
 3C8E   :   24;
 3C8F   :   24;
 3C90   :   24;
 3C91   :   24;
 3C92   :   24;
 3C93   :   24;
 3C94   :   24;
 3C95   :   24;
 3C96   :   24;
 3C97   :   24;
 3C98   :   24;
 3C99   :   24;
 3C9A   :   24;
 3C9B   :   24;
 3C9C   :   24;
 3C9D   :   24;
 3C9E   :   24;
 3C9F   :   24;
 3CA0   :   24;
 3CA1   :   24;
 3CA2   :   24;
 3CA3   :   24;
 3CA4   :   24;
 3CA5   :   24;
 3CA6   :   24;
 3CA7   :   35;
 3CA8   :   25;
 3CA9   :   25;
 3CAA   :   38;
 3CAB   :   24;
 3CAC   :   24;
 3CAD   :   24;
 3CAE   :   24;
 3CAF   :   24;
 3CB0   :   24;
 3CB1   :   24;
 3CB2   :   24;
 3CB3   :   24;
 3CB4   :   24;
 3CB5   :   24;
 3CB6   :   24;
 3CB7   :   24;
 3CB8   :   24;
 3CB9   :   24;
 3CBA   :   24;
 3CBB   :   24;
 3CBC   :   24;
 3CBD   :   24;
 3CBE   :   24;
 3CBF   :   24;
 3CC0   :   24;
 3CC1   :   24;
 3CC2   :   24;
 3CC3   :   24;
 3CC4   :   24;
 3CC5   :   24;
 3CC6   :   24;
 3CC7   :   39;
 3CC8   :   3A;
 3CC9   :   3B;
 3CCA   :   3C;
 3CCB   :   24;
 3CCC   :   24;
 3CCD   :   24;
 3CCE   :   24;
 3CCF   :   24;
 3CD0   :   24;
 3CD1   :   24;
 3CD2   :   24;
 3CD3   :   24;
 3CD4   :   24;
 3CD5   :   24;
 3CD6   :   24;
 3CD7   :   24;
 3CD8   :   24;
 3CD9   :   24;
 3CDA   :   24;
 3CDB   :   24;
 3CDC   :   24;
 3CDD   :   24;
 3CDE   :   24;
 3CDF   :   24;
 3CE0   :   24;
 3CE1   :   24;
 3CE2   :   24;
 3CE3   :   24;
 3CE4   :   24;
 3CE5   :   24;
 3CE6   :   24;
 3CE7   :   24;
 3CE8   :   24;
 3CE9   :   24;
 3CEA   :   24;
 3CEB   :   24;
 3CEC   :   24;
 3CED   :   24;
 3CEE   :   24;
 3CEF   :   24;
 3CF0   :   24;
 3CF1   :   24;
 3CF2   :   24;
 3CF3   :   24;
 3CF4   :   24;
 3CF5   :   24;
 3CF6   :   24;
 3CF7   :   24;
 3CF8   :   24;
 3CF9   :   24;
 3CFA   :   24;
 3CFB   :   24;
 3CFC   :   24;
 3CFD   :   24;
 3CFE   :   24;
 3CFF   :   24;
 3D00   :   24;
 3D01   :   24;
 3D02   :   24;
 3D03   :   24;
 3D04   :   24;
 3D05   :   24;
 3D06   :   24;
 3D07   :   24;
 3D08   :   24;
 3D09   :   24;
 3D0A   :   24;
 3D0B   :   24;
 3D0C   :   24;
 3D0D   :   24;
 3D0E   :   24;
 3D0F   :   24;
 3D10   :   24;
 3D11   :   24;
 3D12   :   24;
 3D13   :   24;
 3D14   :   24;
 3D15   :   24;
 3D16   :   24;
 3D17   :   24;
 3D18   :   24;
 3D19   :   24;
 3D1A   :   24;
 3D1B   :   24;
 3D1C   :   24;
 3D1D   :   24;
 3D1E   :   24;
 3D1F   :   24;
 3D20   :   24;
 3D21   :   24;
 3D22   :   24;
 3D23   :   24;
 3D24   :   24;
 3D25   :   24;
 3D26   :   24;
 3D27   :   24;
 3D28   :   24;
 3D29   :   24;
 3D2A   :   24;
 3D2B   :   24;
 3D2C   :   24;
 3D2D   :   24;
 3D2E   :   24;
 3D2F   :   24;
 3D30   :   24;
 3D31   :   24;
 3D32   :   24;
 3D33   :   24;
 3D34   :   24;
 3D35   :   24;
 3D36   :   24;
 3D37   :   24;
 3D38   :   24;
 3D39   :   24;
 3D3A   :   24;
 3D3B   :   24;
 3D3C   :   24;
 3D3D   :   24;
 3D3E   :   24;
 3D3F   :   24;
 3D40   :   24;
 3D41   :   24;
 3D42   :   24;
 3D43   :   24;
 3D44   :   24;
 3D45   :   24;
 3D46   :   24;
 3D47   :   24;
 3D48   :   24;
 3D49   :   24;
 3D4A   :   24;
 3D4B   :   24;
 3D4C   :   53;
 3D4D   :   54;
 3D4E   :   24;
 3D4F   :   24;
 3D50   :   24;
 3D51   :   24;
 3D52   :   24;
 3D53   :   24;
 3D54   :   24;
 3D55   :   24;
 3D56   :   24;
 3D57   :   24;
 3D58   :   24;
 3D59   :   24;
 3D5A   :   24;
 3D5B   :   24;
 3D5C   :   24;
 3D5D   :   24;
 3D5E   :   24;
 3D5F   :   24;
 3D60   :   24;
 3D61   :   24;
 3D62   :   24;
 3D63   :   24;
 3D64   :   24;
 3D65   :   24;
 3D66   :   24;
 3D67   :   24;
 3D68   :   24;
 3D69   :   24;
 3D6A   :   24;
 3D6B   :   24;
 3D6C   :   55;
 3D6D   :   56;
 3D6E   :   24;
 3D6F   :   24;
 3D70   :   24;
 3D71   :   24;
 3D72   :   24;
 3D73   :   24;
 3D74   :   24;
 3D75   :   24;
 3D76   :   24;
 3D77   :   24;
 3D78   :   24;
 3D79   :   24;
 3D7A   :   24;
 3D7B   :   24;
 3D7C   :   24;
 3D7D   :   24;
 3D7E   :   24;
 3D7F   :   24;
 3D80   :   24;
 3D81   :   24;
 3D82   :   24;
 3D83   :   24;
 3D84   :   24;
 3D85   :   24;
 3D86   :   24;
 3D87   :   24;
 3D88   :   24;
 3D89   :   24;
 3D8A   :   24;
 3D8B   :   24;
 3D8C   :   24;
 3D8D   :   24;
 3D8E   :   24;
 3D8F   :   24;
 3D90   :   24;
 3D91   :   24;
 3D92   :   24;
 3D93   :   24;
 3D94   :   24;
 3D95   :   24;
 3D96   :   24;
 3D97   :   24;
 3D98   :   24;
 3D99   :   24;
 3D9A   :   24;
 3D9B   :   24;
 3D9C   :   24;
 3D9D   :   24;
 3D9E   :   24;
 3D9F   :   24;
 3DA0   :   24;
 3DA1   :   24;
 3DA2   :   24;
 3DA3   :   24;
 3DA4   :   24;
 3DA5   :   24;
 3DA6   :   24;
 3DA7   :   24;
 3DA8   :   24;
 3DA9   :   24;
 3DAA   :   24;
 3DAB   :   24;
 3DAC   :   24;
 3DAD   :   24;
 3DAE   :   24;
 3DAF   :   24;
 3DB0   :   24;
 3DB1   :   24;
 3DB2   :   24;
 3DB3   :   24;
 3DB4   :   24;
 3DB5   :   24;
 3DB6   :   24;
 3DB7   :   24;
 3DB8   :   24;
 3DB9   :   24;
 3DBA   :   24;
 3DBB   :   24;
 3DBC   :   24;
 3DBD   :   24;
 3DBE   :   24;
 3DBF   :   24;
 3DC0   :   24;
 3DC1   :   24;
 3DC2   :   24;
 3DC3   :   24;
 3DC4   :   24;
 3DC5   :   24;
 3DC6   :   24;
 3DC7   :   24;
 3DC8   :   24;
 3DC9   :   24;
 3DCA   :   24;
 3DCB   :   24;
 3DCC   :   24;
 3DCD   :   24;
 3DCE   :   24;
 3DCF   :   24;
 3DD0   :   24;
 3DD1   :   24;
 3DD2   :   24;
 3DD3   :   24;
 3DD4   :   24;
 3DD5   :   24;
 3DD6   :   24;
 3DD7   :   24;
 3DD8   :   24;
 3DD9   :   24;
 3DDA   :   24;
 3DDB   :   24;
 3DDC   :   24;
 3DDD   :   24;
 3DDE   :   24;
 3DDF   :   24;
 3DE0   :   24;
 3DE1   :   24;
 3DE2   :   24;
 3DE3   :   24;
 3DE4   :   24;
 3DE5   :   24;
 3DE6   :   24;
 3DE7   :   24;
 3DE8   :   24;
 3DE9   :   24;
 3DEA   :   24;
 3DEB   :   24;
 3DEC   :   24;
 3DED   :   24;
 3DEE   :   24;
 3DEF   :   24;
 3DF0   :   24;
 3DF1   :   24;
 3DF2   :   24;
 3DF3   :   24;
 3DF4   :   24;
 3DF5   :   24;
 3DF6   :   24;
 3DF7   :   24;
 3DF8   :   24;
 3DF9   :   24;
 3DFA   :   24;
 3DFB   :   24;
 3DFC   :   24;
 3DFD   :   24;
 3DFE   :   24;
 3DFF   :   24;
 3E00   :   24;
 3E01   :   24;
 3E02   :   24;
 3E03   :   24;
 3E04   :   24;
 3E05   :   24;
 3E06   :   24;
 3E07   :   24;
 3E08   :   24;
 3E09   :   24;
 3E0A   :   24;
 3E0B   :   24;
 3E0C   :   24;
 3E0D   :   24;
 3E0E   :   24;
 3E0F   :   24;
 3E10   :   24;
 3E11   :   24;
 3E12   :   24;
 3E13   :   24;
 3E14   :   24;
 3E15   :   24;
 3E16   :   24;
 3E17   :   24;
 3E18   :   24;
 3E19   :   24;
 3E1A   :   24;
 3E1B   :   24;
 3E1C   :   24;
 3E1D   :   24;
 3E1E   :   24;
 3E1F   :   24;
 3E20   :   24;
 3E21   :   24;
 3E22   :   24;
 3E23   :   24;
 3E24   :   24;
 3E25   :   24;
 3E26   :   24;
 3E27   :   24;
 3E28   :   24;
 3E29   :   24;
 3E2A   :   24;
 3E2B   :   24;
 3E2C   :   24;
 3E2D   :   24;
 3E2E   :   24;
 3E2F   :   24;
 3E30   :   24;
 3E31   :   24;
 3E32   :   24;
 3E33   :   24;
 3E34   :   24;
 3E35   :   24;
 3E36   :   24;
 3E37   :   24;
 3E38   :   24;
 3E39   :   24;
 3E3A   :   24;
 3E3B   :   24;
 3E3C   :   24;
 3E3D   :   24;
 3E3E   :   24;
 3E3F   :   24;
 3E40   :   53;
 3E41   :   54;
 3E42   :   24;
 3E43   :   24;
 3E44   :   24;
 3E45   :   24;
 3E46   :   24;
 3E47   :   24;
 3E48   :   45;
 3E49   :   45;
 3E4A   :   53;
 3E4B   :   54;
 3E4C   :   45;
 3E4D   :   45;
 3E4E   :   53;
 3E4F   :   54;
 3E50   :   24;
 3E51   :   24;
 3E52   :   24;
 3E53   :   24;
 3E54   :   24;
 3E55   :   24;
 3E56   :   24;
 3E57   :   24;
 3E58   :   24;
 3E59   :   24;
 3E5A   :   24;
 3E5B   :   24;
 3E5C   :   24;
 3E5D   :   24;
 3E5E   :   24;
 3E5F   :   24;
 3E60   :   55;
 3E61   :   56;
 3E62   :   24;
 3E63   :   24;
 3E64   :   24;
 3E65   :   24;
 3E66   :   24;
 3E67   :   24;
 3E68   :   47;
 3E69   :   47;
 3E6A   :   55;
 3E6B   :   56;
 3E6C   :   47;
 3E6D   :   47;
 3E6E   :   55;
 3E6F   :   56;
 3E70   :   24;
 3E71   :   24;
 3E72   :   24;
 3E73   :   24;
 3E74   :   24;
 3E75   :   24;
 3E76   :   24;
 3E77   :   24;
 3E78   :   24;
 3E79   :   24;
 3E7A   :   24;
 3E7B   :   24;
 3E7C   :   24;
 3E7D   :   24;
 3E7E   :   24;
 3E7F   :   24;
 3E80   :   24;
 3E81   :   24;
 3E82   :   24;
 3E83   :   24;
 3E84   :   24;
 3E85   :   24;
 3E86   :   24;
 3E87   :   24;
 3E88   :   24;
 3E89   :   24;
 3E8A   :   24;
 3E8B   :   24;
 3E8C   :   24;
 3E8D   :   24;
 3E8E   :   24;
 3E8F   :   24;
 3E90   :   24;
 3E91   :   24;
 3E92   :   24;
 3E93   :   24;
 3E94   :   24;
 3E95   :   24;
 3E96   :   24;
 3E97   :   24;
 3E98   :   24;
 3E99   :   24;
 3E9A   :   24;
 3E9B   :   24;
 3E9C   :   24;
 3E9D   :   24;
 3E9E   :   24;
 3E9F   :   24;
 3EA0   :   24;
 3EA1   :   24;
 3EA2   :   24;
 3EA3   :   24;
 3EA4   :   24;
 3EA5   :   24;
 3EA6   :   24;
 3EA7   :   24;
 3EA8   :   24;
 3EA9   :   24;
 3EAA   :   24;
 3EAB   :   24;
 3EAC   :   24;
 3EAD   :   24;
 3EAE   :   24;
 3EAF   :   24;
 3EB0   :   24;
 3EB1   :   24;
 3EB2   :   24;
 3EB3   :   24;
 3EB4   :   24;
 3EB5   :   24;
 3EB6   :   24;
 3EB7   :   24;
 3EB8   :   24;
 3EB9   :   24;
 3EBA   :   24;
 3EBB   :   24;
 3EBC   :   24;
 3EBD   :   24;
 3EBE   :   24;
 3EBF   :   24;
 3EC0   :   24;
 3EC1   :   24;
 3EC2   :   24;
 3EC3   :   24;
 3EC4   :   24;
 3EC5   :   24;
 3EC6   :   24;
 3EC7   :   24;
 3EC8   :   24;
 3EC9   :   24;
 3ECA   :   24;
 3ECB   :   24;
 3ECC   :   24;
 3ECD   :   24;
 3ECE   :   24;
 3ECF   :   24;
 3ED0   :   24;
 3ED1   :   24;
 3ED2   :   24;
 3ED3   :   24;
 3ED4   :   24;
 3ED5   :   24;
 3ED6   :   24;
 3ED7   :   24;
 3ED8   :   24;
 3ED9   :   24;
 3EDA   :   24;
 3EDB   :   24;
 3EDC   :   24;
 3EDD   :   24;
 3EDE   :   24;
 3EDF   :   24;
 3EE0   :   24;
 3EE1   :   24;
 3EE2   :   31;
 3EE3   :   32;
 3EE4   :   24;
 3EE5   :   24;
 3EE6   :   24;
 3EE7   :   24;
 3EE8   :   24;
 3EE9   :   24;
 3EEA   :   24;
 3EEB   :   24;
 3EEC   :   24;
 3EED   :   24;
 3EEE   :   24;
 3EEF   :   24;
 3EF0   :   24;
 3EF1   :   24;
 3EF2   :   24;
 3EF3   :   24;
 3EF4   :   24;
 3EF5   :   24;
 3EF6   :   24;
 3EF7   :   24;
 3EF8   :   24;
 3EF9   :   24;
 3EFA   :   24;
 3EFB   :   24;
 3EFC   :   24;
 3EFD   :   24;
 3EFE   :   24;
 3EFF   :   24;
 3F00   :   22;
 3F01   :   29;
 3F02   :   1A;
 3F03   :    F;
 3F04   :   22;
 3F05   :   36;
 3F06   :   17;
 3F07   :    F;
 3F08   :   22;
 3F09   :   30;
 3F0A   :   21;
 3F0B   :    F;
 3F0C   :   22;
 3F0D   :   27;
 3F0E   :   17;
 3F0F   :    F;
 3F10   :    0;
 3F11   :   16;
 3F12   :   27;
 3F13   :   18;
 3F14   :    0;
 3F15   :   1A;
 3F16   :   30;
 3F17   :   27;
 3F18   :    0;
 3F19   :   16;
 3F1A   :   30;
 3F1B   :   27;
 3F1C   :    0;
 3F1D   :    F;
 3F1E   :   36;
 3F1F   :   17;
 3F20   :   22;
 3F21   :   29;
 3F22   :   1A;
 3F23   :    F;
 3F24   :   22;
 3F25   :   36;
 3F26   :   17;
 3F27   :    F;
 3F28   :   22;
 3F29   :   30;
 3F2A   :   21;
 3F2B   :    F;
 3F2C   :   22;
 3F2D   :   27;
 3F2E   :   17;
 3F2F   :    F;
 3F30   :    0;
 3F31   :   16;
 3F32   :   27;
 3F33   :   18;
 3F34   :    0;
 3F35   :   1A;
 3F36   :   30;
 3F37   :   27;
 3F38   :    0;
 3F39   :   16;
 3F3A   :   30;
 3F3B   :   27;
 3F3C   :    0;
 3F3D   :    F;
 3F3E   :   36;
 3F3F   :   17;
 3F40   :   22;
 3F41   :   29;
 3F42   :   1A;
 3F43   :    F;
 3F44   :   22;
 3F45   :   36;
 3F46   :   17;
 3F47   :    F;
 3F48   :   22;
 3F49   :   30;
 3F4A   :   21;
 3F4B   :    F;
 3F4C   :   22;
 3F4D   :   27;
 3F4E   :   17;
 3F4F   :    F;
 3F50   :    0;
 3F51   :   16;
 3F52   :   27;
 3F53   :   18;
 3F54   :    0;
 3F55   :   1A;
 3F56   :   30;
 3F57   :   27;
 3F58   :    0;
 3F59   :   16;
 3F5A   :   30;
 3F5B   :   27;
 3F5C   :    0;
 3F5D   :    F;
 3F5E   :   36;
 3F5F   :   17;
 3F60   :   22;
 3F61   :   29;
 3F62   :   1A;
 3F63   :    F;
 3F64   :   22;
 3F65   :   36;
 3F66   :   17;
 3F67   :    F;
 3F68   :   22;
 3F69   :   30;
 3F6A   :   21;
 3F6B   :    F;
 3F6C   :   22;
 3F6D   :   27;
 3F6E   :   17;
 3F6F   :    F;
 3F70   :    0;
 3F71   :   16;
 3F72   :   27;
 3F73   :   18;
 3F74   :    0;
 3F75   :   1A;
 3F76   :   30;
 3F77   :   27;
 3F78   :    0;
 3F79   :   16;
 3F7A   :   30;
 3F7B   :   27;
 3F7C   :    0;
 3F7D   :    F;
 3F7E   :   36;
 3F7F   :   17;
 3F80   :   22;
 3F81   :   29;
 3F82   :   1A;
 3F83   :    F;
 3F84   :   22;
 3F85   :   36;
 3F86   :   17;
 3F87   :    F;
 3F88   :   22;
 3F89   :   30;
 3F8A   :   21;
 3F8B   :    F;
 3F8C   :   22;
 3F8D   :   27;
 3F8E   :   17;
 3F8F   :    F;
 3F90   :    0;
 3F91   :   16;
 3F92   :   27;
 3F93   :   18;
 3F94   :    0;
 3F95   :   1A;
 3F96   :   30;
 3F97   :   27;
 3F98   :    0;
 3F99   :   16;
 3F9A   :   30;
 3F9B   :   27;
 3F9C   :    0;
 3F9D   :    F;
 3F9E   :   36;
 3F9F   :   17;
 3FA0   :   22;
 3FA1   :   29;
 3FA2   :   1A;
 3FA3   :    F;
 3FA4   :   22;
 3FA5   :   36;
 3FA6   :   17;
 3FA7   :    F;
 3FA8   :   22;
 3FA9   :   30;
 3FAA   :   21;
 3FAB   :    F;
 3FAC   :   22;
 3FAD   :   27;
 3FAE   :   17;
 3FAF   :    F;
 3FB0   :    0;
 3FB1   :   16;
 3FB2   :   27;
 3FB3   :   18;
 3FB4   :    0;
 3FB5   :   1A;
 3FB6   :   30;
 3FB7   :   27;
 3FB8   :    0;
 3FB9   :   16;
 3FBA   :   30;
 3FBB   :   27;
 3FBC   :    0;
 3FBD   :    F;
 3FBE   :   36;
 3FBF   :   17;
 3FC0   :   22;
 3FC1   :   29;
 3FC2   :   1A;
 3FC3   :    F;
 3FC4   :   22;
 3FC5   :   36;
 3FC6   :   17;
 3FC7   :    F;
 3FC8   :   22;
 3FC9   :   30;
 3FCA   :   21;
 3FCB   :    F;
 3FCC   :   22;
 3FCD   :   27;
 3FCE   :   17;
 3FCF   :    F;
 3FD0   :    0;
 3FD1   :   16;
 3FD2   :   27;
 3FD3   :   18;
 3FD4   :    0;
 3FD5   :   1A;
 3FD6   :   30;
 3FD7   :   27;
 3FD8   :    0;
 3FD9   :   16;
 3FDA   :   30;
 3FDB   :   27;
 3FDC   :    0;
 3FDD   :    F;
 3FDE   :   36;
 3FDF   :   17;
 3FE0   :   22;
 3FE1   :   29;
 3FE2   :   1A;
 3FE3   :    F;
 3FE4   :   22;
 3FE5   :   36;
 3FE6   :   17;
 3FE7   :    F;
 3FE8   :   22;
 3FE9   :   30;
 3FEA   :   21;
 3FEB   :    F;
 3FEC   :   22;
 3FED   :   27;
 3FEE   :   17;
 3FEF   :    F;
 3FF0   :    0;
 3FF1   :   16;
 3FF2   :   27;
 3FF3   :   18;
 3FF4   :    0;
 3FF5   :   1A;
 3FF6   :   30;
 3FF7   :   27;
 3FF8   :    0;
 3FF9   :   16;
 3FFA   :   30;
 3FFB   :   27;
 3FFC   :    0;
 3FFD   :    F;
 3FFE   :   36;
 3FFF   :   17;
END; 