-- Copyright (C) 1991-2013 Altera Corporation
-- Your use of Altera Corporation's design tools, logic functions 
-- and other software and tools, and its AMPP partner logic 
-- functions, and any output files from any of the foregoing 
-- (including device programming or simulation files), and any 
-- associated documentation or information are expressly subject 
-- to the terms and conditions of the Altera Program License 
-- Subscription Agreement, Altera MegaCore Function License 
-- Agreement, or other applicable license agreement, including, 
-- without limitation, that your use is for the sole purpose of 
-- programming logic devices manufactured by Altera and sold by 
-- Altera or its authorized distributors.  Please refer to the 
-- applicable agreement for further details.

-- Quartus II generated Memory Initialization File (.mif)

WIDTH=8;
DEPTH=8192;

ADDRESS_RADIX=HEX;
DATA_RADIX=HEX;

CONTENT BEGIN    
    0   :    0;
    1   :    0;
    2   :    0;
    3   :    0;
    4   :    0;
    5   :    0;
    6   :    0;
    7   :    0;
    8   :    0;
    9   :    0;
    A   :    0;
    B   :    0;
    C   :    0;
    D   :    0;
    E   :    0;
    F   :    0;
   10   :    C;
   11   :    6;
   12   :    E;
   13   :   16;
   14   :   26;
   15   :   7E;
   16   :   66;
   17   :    0;
   18   :    C;
   19   :    6;
   1A   :    E;
   1B   :   16;
   1C   :   26;
   1D   :   7E;
   1E   :   66;
   1F   :    0;
   20   :   DC;
   21   :   66;
   22   :   66;
   23   :   68;
   24   :   64;
   25   :   66;
   26   :   DC;
   27   :    0;
   28   :   DC;
   29   :   66;
   2A   :   66;
   2B   :   68;
   2C   :   64;
   2D   :   66;
   2E   :   DC;
   2F   :    0;
   30   :   1C;
   31   :   2A;
   32   :   48;
   33   :   58;
   34   :   70;
   35   :   22;
   36   :   1C;
   37   :    0;
   38   :   1C;
   39   :   2A;
   3A   :   48;
   3B   :   58;
   3C   :   70;
   3D   :   22;
   3E   :   1C;
   3F   :    0;
   40   :   D0;
   41   :   68;
   42   :   64;
   43   :   66;
   44   :   66;
   45   :   64;
   46   :   D8;
   47   :    0;
   48   :   D0;
   49   :   68;
   4A   :   64;
   4B   :   66;
   4C   :   66;
   4D   :   64;
   4E   :   D8;
   4F   :    0;
   50   :   DC;
   51   :   62;
   52   :   60;
   53   :   78;
   54   :   60;
   55   :   62;
   56   :   DE;
   57   :    0;
   58   :   DC;
   59   :   62;
   5A   :   60;
   5B   :   78;
   5C   :   60;
   5D   :   62;
   5E   :   DE;
   5F   :    0;
   60   :   DC;
   61   :   62;
   62   :   60;
   63   :   78;
   64   :   60;
   65   :   60;
   66   :   C0;
   67   :    0;
   68   :   DC;
   69   :   62;
   6A   :   60;
   6B   :   78;
   6C   :   60;
   6D   :   60;
   6E   :   C0;
   6F   :    0;
   70   :   1C;
   71   :   22;
   72   :   60;
   73   :   6E;
   74   :   66;
   75   :   26;
   76   :   1C;
   77   :    0;
   78   :   1C;
   79   :   22;
   7A   :   60;
   7B   :   6E;
   7C   :   66;
   7D   :   26;
   7E   :   1C;
   7F   :    0;
   80   :   C3;
   81   :   66;
   82   :   66;
   83   :   6E;
   84   :   66;
   85   :   66;
   86   :   C3;
   87   :    0;
   88   :   C3;
   89   :   66;
   8A   :   66;
   8B   :   6E;
   8C   :   66;
   8D   :   66;
   8E   :   C3;
   8F   :    0;
   90   :    C;
   91   :   18;
   92   :   18;
   93   :   18;
   94   :   18;
   95   :   18;
   96   :   30;
   97   :    0;
   98   :    C;
   99   :   18;
   9A   :   18;
   9B   :   18;
   9C   :   18;
   9D   :   18;
   9E   :   30;
   9F   :    0;
   A0   :   1E;
   A1   :    C;
   A2   :    C;
   A3   :    C;
   A4   :   6C;
   A5   :   4C;
   A6   :   38;
   A7   :    0;
   A8   :   1E;
   A9   :    C;
   AA   :    C;
   AB   :    C;
   AC   :   6C;
   AD   :   4C;
   AE   :   38;
   AF   :    0;
   B0   :   CE;
   B1   :   64;
   B2   :   68;
   B3   :   70;
   B4   :   6C;
   B5   :   66;
   B6   :   C2;
   B7   :    0;
   B8   :   CE;
   B9   :   64;
   BA   :   68;
   BB   :   70;
   BC   :   6C;
   BD   :   66;
   BE   :   C2;
   BF   :    0;
   C0   :   C0;
   C1   :   60;
   C2   :   60;
   C3   :   60;
   C4   :   60;
   C5   :   62;
   C6   :   DE;
   C7   :    0;
   C8   :   C0;
   C9   :   60;
   CA   :   60;
   CB   :   60;
   CC   :   60;
   CD   :   62;
   CE   :   DE;
   CF   :    0;
   D0   :   C3;
   D1   :   66;
   D2   :   7E;
   D3   :   76;
   D4   :   66;
   D5   :   66;
   D6   :   CC;
   D7   :    0;
   D8   :   C3;
   D9   :   66;
   DA   :   7E;
   DB   :   76;
   DC   :   66;
   DD   :   66;
   DE   :   CC;
   DF   :    0;
   E0   :   C1;
   E1   :   62;
   E2   :   72;
   E3   :   6A;
   E4   :   66;
   E5   :   62;
   E6   :   C4;
   E7   :    0;
   E8   :   C1;
   E9   :   62;
   EA   :   72;
   EB   :   6A;
   EC   :   66;
   ED   :   62;
   EE   :   C4;
   EF   :    0;
   F0   :   18;
   F1   :   24;
   F2   :   66;
   F3   :   66;
   F4   :   66;
   F5   :   24;
   F6   :   18;
   F7   :    0;
   F8   :   18;
   F9   :   24;
   FA   :   66;
   FB   :   66;
   FC   :   66;
   FD   :   24;
   FE   :   18;
   FF   :    0;
  100   :   DC;
  101   :   66;
  102   :   E6;
  103   :   7C;
  104   :   60;
  105   :   60;
  106   :   C0;
  107   :    0;
  108   :   DC;
  109   :   66;
  10A   :   E6;
  10B   :   7C;
  10C   :   60;
  10D   :   60;
  10E   :   C0;
  10F   :    0;
  110   :   18;
  111   :   24;
  112   :   66;
  113   :   62;
  114   :   6C;
  115   :   26;
  116   :   1B;
  117   :    0;
  118   :   18;
  119   :   24;
  11A   :   66;
  11B   :   62;
  11C   :   6C;
  11D   :   26;
  11E   :   1B;
  11F   :    0;
  120   :   DC;
  121   :   66;
  122   :   64;
  123   :   78;
  124   :   6C;
  125   :   66;
  126   :   C2;
  127   :    0;
  128   :   DC;
  129   :   66;
  12A   :   64;
  12B   :   78;
  12C   :   6C;
  12D   :   66;
  12E   :   C2;
  12F   :    0;
  130   :   3C;
  131   :   42;
  132   :   70;
  133   :   3C;
  134   :    E;
  135   :   46;
  136   :   3C;
  137   :    0;
  138   :   3C;
  139   :   42;
  13A   :   70;
  13B   :   3C;
  13C   :    E;
  13D   :   46;
  13E   :   3C;
  13F   :    0;
  140   :   7E;
  141   :   99;
  142   :   18;
  143   :   18;
  144   :   18;
  145   :   18;
  146   :   30;
  147   :    0;
  148   :   7E;
  149   :   99;
  14A   :   18;
  14B   :   18;
  14C   :   18;
  14D   :   18;
  14E   :   30;
  14F   :    0;
  150   :   CC;
  151   :   66;
  152   :   66;
  153   :   66;
  154   :   66;
  155   :   66;
  156   :   3C;
  157   :    0;
  158   :   CC;
  159   :   66;
  15A   :   66;
  15B   :   66;
  15C   :   66;
  15D   :   66;
  15E   :   3C;
  15F   :    0;
  160   :   C6;
  161   :   62;
  162   :   62;
  163   :   72;
  164   :   34;
  165   :   38;
  166   :   18;
  167   :    0;
  168   :   C6;
  169   :   62;
  16A   :   62;
  16B   :   72;
  16C   :   34;
  16D   :   38;
  16E   :   18;
  16F   :    0;
  170   :   C1;
  171   :   62;
  172   :   6A;
  173   :   6A;
  174   :   7A;
  175   :   76;
  176   :   24;
  177   :    0;
  178   :   C1;
  179   :   62;
  17A   :   6A;
  17B   :   6A;
  17C   :   7A;
  17D   :   76;
  17E   :   24;
  17F   :    0;
  180   :   73;
  181   :   32;
  182   :   34;
  183   :   18;
  184   :   2C;
  185   :   4C;
  186   :   CE;
  187   :    0;
  188   :   73;
  189   :   32;
  18A   :   34;
  18B   :   18;
  18C   :   2C;
  18D   :   4C;
  18E   :   CE;
  18F   :    0;
  190   :   66;
  191   :   26;
  192   :   26;
  193   :   3C;
  194   :   18;
  195   :   18;
  196   :   30;
  197   :    0;
  198   :   66;
  199   :   26;
  19A   :   26;
  19B   :   3C;
  19C   :   18;
  19D   :   18;
  19E   :   30;
  19F   :    0;
  1A0   :   3A;
  1A1   :   46;
  1A2   :    C;
  1A3   :   18;
  1A4   :   30;
  1A5   :   62;
  1A6   :   5E;
  1A7   :    0;
  1A8   :   3A;
  1A9   :   46;
  1AA   :    C;
  1AB   :   18;
  1AC   :   30;
  1AD   :   62;
  1AE   :   5E;
  1AF   :    0;
  1B0   :    0;
  1B1   :   40;
  1B2   :   38;
  1B3   :    C;
  1B4   :   3C;
  1B5   :   6C;
  1B6   :   36;
  1B7   :    0;
  1B8   :    0;
  1B9   :   40;
  1BA   :   38;
  1BB   :    C;
  1BC   :   3C;
  1BD   :   6C;
  1BE   :   36;
  1BF   :    0;
  1C0   :   C0;
  1C1   :   60;
  1C2   :   6C;
  1C3   :   76;
  1C4   :   66;
  1C5   :   76;
  1C6   :   3C;
  1C7   :    0;
  1C8   :   C0;
  1C9   :   60;
  1CA   :   6C;
  1CB   :   76;
  1CC   :   66;
  1CD   :   76;
  1CE   :   3C;
  1CF   :    0;
  1D0   :    0;
  1D1   :    0;
  1D2   :   1C;
  1D3   :   36;
  1D4   :   60;
  1D5   :   32;
  1D6   :   1C;
  1D7   :    0;
  1D8   :    0;
  1D9   :    0;
  1DA   :   1C;
  1DB   :   36;
  1DC   :   60;
  1DD   :   32;
  1DE   :   1C;
  1DF   :    0;
  1E0   :    6;
  1E1   :    C;
  1E2   :   1C;
  1E3   :   2C;
  1E4   :   6C;
  1E5   :   6C;
  1E6   :   36;
  1E7   :    0;
  1E8   :    6;
  1E9   :    C;
  1EA   :   1C;
  1EB   :   2C;
  1EC   :   6C;
  1ED   :   6C;
  1EE   :   36;
  1EF   :    0;
  1F0   :    0;
  1F1   :    0;
  1F2   :   1C;
  1F3   :   2C;
  1F4   :   68;
  1F5   :   70;
  1F6   :   3C;
  1F7   :    0;
  1F8   :    0;
  1F9   :    0;
  1FA   :   1C;
  1FB   :   2C;
  1FC   :   68;
  1FD   :   70;
  1FE   :   3C;
  1FF   :    0;
  200   :    E;
  201   :   18;
  202   :   7C;
  203   :   18;
  204   :   18;
  205   :   18;
  206   :    C;
  207   :    0;
  208   :    E;
  209   :   18;
  20A   :   7C;
  20B   :   18;
  20C   :   18;
  20D   :   18;
  20E   :    C;
  20F   :    0;
  210   :    0;
  211   :    0;
  212   :   3A;
  213   :   6C;
  214   :   6C;
  215   :   3C;
  216   :    6;
  217   :   3E;
  218   :    0;
  219   :    0;
  21A   :   3A;
  21B   :   6C;
  21C   :   6C;
  21D   :   3C;
  21E   :    6;
  21F   :   3E;
  220   :   60;
  221   :   60;
  222   :   6C;
  223   :   76;
  224   :   66;
  225   :   66;
  226   :   66;
  227   :    C;
  228   :   60;
  229   :   60;
  22A   :   6C;
  22B   :   76;
  22C   :   66;
  22D   :   66;
  22E   :   66;
  22F   :    C;
  230   :   18;
  231   :    0;
  232   :   18;
  233   :   38;
  234   :   18;
  235   :   18;
  236   :   1C;
  237   :    0;
  238   :   18;
  239   :    0;
  23A   :   18;
  23B   :   38;
  23C   :   18;
  23D   :   18;
  23E   :   1C;
  23F   :    0;
  240   :    4;
  241   :    0;
  242   :    6;
  243   :    E;
  244   :    6;
  245   :    6;
  246   :   26;
  247   :   5C;
  248   :    4;
  249   :    0;
  24A   :    6;
  24B   :    E;
  24C   :    6;
  24D   :    6;
  24E   :   26;
  24F   :   5C;
  250   :   30;
  251   :   30;
  252   :   36;
  253   :   34;
  254   :   38;
  255   :   35;
  256   :   36;
  257   :    0;
  258   :   30;
  259   :   30;
  25A   :   36;
  25B   :   34;
  25C   :   38;
  25D   :   35;
  25E   :   36;
  25F   :    0;
  260   :   18;
  261   :   38;
  262   :   18;
  263   :   18;
  264   :   18;
  265   :   18;
  266   :    C;
  267   :    0;
  268   :   18;
  269   :   38;
  26A   :   18;
  26B   :   18;
  26C   :   18;
  26D   :   18;
  26E   :    C;
  26F   :    0;
  270   :    0;
  271   :    0;
  272   :   EC;
  273   :   7E;
  274   :   56;
  275   :   56;
  276   :   53;
  277   :    0;
  278   :    0;
  279   :    0;
  27A   :   EC;
  27B   :   7E;
  27C   :   56;
  27D   :   56;
  27E   :   53;
  27F   :    0;
  280   :    0;
  281   :    0;
  282   :   CC;
  283   :   76;
  284   :   66;
  285   :   66;
  286   :   63;
  287   :    0;
  288   :    0;
  289   :    0;
  28A   :   CC;
  28B   :   76;
  28C   :   66;
  28D   :   66;
  28E   :   63;
  28F   :    0;
  290   :    0;
  291   :    0;
  292   :   38;
  293   :   6C;
  294   :   66;
  295   :   36;
  296   :   1C;
  297   :    0;
  298   :    0;
  299   :    0;
  29A   :   38;
  29B   :   6C;
  29C   :   66;
  29D   :   36;
  29E   :   1C;
  29F   :    0;
  2A0   :    0;
  2A1   :    0;
  2A2   :   58;
  2A3   :   64;
  2A4   :   66;
  2A5   :   76;
  2A6   :   6C;
  2A7   :   C0;
  2A8   :    0;
  2A9   :    0;
  2AA   :   58;
  2AB   :   64;
  2AC   :   66;
  2AD   :   76;
  2AE   :   6C;
  2AF   :   C0;
  2B0   :    0;
  2B1   :    0;
  2B2   :   36;
  2B3   :   4C;
  2B4   :   CC;
  2B5   :   DC;
  2B6   :   6C;
  2B7   :    C;
  2B8   :    0;
  2B9   :    0;
  2BA   :   36;
  2BB   :   4C;
  2BC   :   CC;
  2BD   :   DC;
  2BE   :   6C;
  2BF   :    C;
  2C0   :    0;
  2C1   :    0;
  2C2   :    4;
  2C3   :   6E;
  2C4   :   36;
  2C5   :   30;
  2C6   :   60;
  2C7   :    0;
  2C8   :    0;
  2C9   :    0;
  2CA   :    4;
  2CB   :   6E;
  2CC   :   36;
  2CD   :   30;
  2CE   :   60;
  2CF   :    0;
  2D0   :    0;
  2D1   :    4;
  2D2   :   38;
  2D3   :   70;
  2D4   :   1C;
  2D5   :   6E;
  2D6   :   9C;
  2D7   :    0;
  2D8   :    0;
  2D9   :    4;
  2DA   :   38;
  2DB   :   70;
  2DC   :   1C;
  2DD   :   6E;
  2DE   :   9C;
  2DF   :    0;
  2E0   :   30;
  2E1   :   30;
  2E2   :   FC;
  2E3   :   30;
  2E4   :   30;
  2E5   :   36;
  2E6   :   18;
  2E7   :    0;
  2E8   :   30;
  2E9   :   30;
  2EA   :   FC;
  2EB   :   30;
  2EC   :   30;
  2ED   :   36;
  2EE   :   18;
  2EF   :    0;
  2F0   :    0;
  2F1   :    0;
  2F2   :   44;
  2F3   :   66;
  2F4   :   66;
  2F5   :   6E;
  2F6   :   3B;
  2F7   :    0;
  2F8   :    0;
  2F9   :    0;
  2FA   :   44;
  2FB   :   66;
  2FC   :   66;
  2FD   :   6E;
  2FE   :   3B;
  2FF   :    0;
  300   :    0;
  301   :    0;
  302   :   2C;
  303   :   66;
  304   :   66;
  305   :   2C;
  306   :   18;
  307   :    0;
  308   :    0;
  309   :    0;
  30A   :   2C;
  30B   :   66;
  30C   :   66;
  30D   :   2C;
  30E   :   18;
  30F   :    0;
  310   :    0;
  311   :    0;
  312   :   44;
  313   :   D6;
  314   :   D6;
  315   :   FE;
  316   :   6C;
  317   :    0;
  318   :    0;
  319   :    0;
  31A   :   44;
  31B   :   D6;
  31C   :   D6;
  31D   :   FE;
  31E   :   6C;
  31F   :    0;
  320   :    0;
  321   :    0;
  322   :   66;
  323   :   34;
  324   :   18;
  325   :   2C;
  326   :   66;
  327   :    0;
  328   :    0;
  329   :    0;
  32A   :   66;
  32B   :   34;
  32C   :   18;
  32D   :   2C;
  32E   :   66;
  32F   :    0;
  330   :    0;
  331   :    0;
  332   :   76;
  333   :   36;
  334   :   36;
  335   :   1C;
  336   :   30;
  337   :   40;
  338   :    0;
  339   :    0;
  33A   :   76;
  33B   :   36;
  33C   :   36;
  33D   :   1C;
  33E   :   30;
  33F   :   40;
  340   :    0;
  341   :    0;
  342   :   7C;
  343   :    4;
  344   :   18;
  345   :    C;
  346   :    C;
  347   :   10;
  348   :    0;
  349   :    0;
  34A   :   7C;
  34B   :    4;
  34C   :   18;
  34D   :    C;
  34E   :    C;
  34F   :   10;
  350   :   18;
  351   :   2C;
  352   :   46;
  353   :   42;
  354   :   62;
  355   :   34;
  356   :   18;
  357   :    0;
  358   :   18;
  359   :   2C;
  35A   :   46;
  35B   :   42;
  35C   :   62;
  35D   :   34;
  35E   :   18;
  35F   :    0;
  360   :   18;
  361   :   38;
  362   :   18;
  363   :   18;
  364   :   18;
  365   :   18;
  366   :    C;
  367   :    0;
  368   :   18;
  369   :   38;
  36A   :   18;
  36B   :   18;
  36C   :   18;
  36D   :   18;
  36E   :    C;
  36F   :    0;
  370   :   38;
  371   :   64;
  372   :    6;
  373   :    C;
  374   :   18;
  375   :   20;
  376   :   7E;
  377   :    0;
  378   :   38;
  379   :   64;
  37A   :    6;
  37B   :    C;
  37C   :   18;
  37D   :   20;
  37E   :   7E;
  37F   :    0;
  380   :   38;
  381   :   64;
  382   :    6;
  383   :   1C;
  384   :    6;
  385   :   66;
  386   :   3C;
  387   :    0;
  388   :   38;
  389   :   64;
  38A   :    6;
  38B   :   1C;
  38C   :    6;
  38D   :   66;
  38E   :   3C;
  38F   :    0;
  390   :    C;
  391   :   1C;
  392   :   2C;
  393   :   6C;
  394   :   7E;
  395   :    C;
  396   :    E;
  397   :    0;
  398   :    C;
  399   :   1C;
  39A   :   2C;
  39B   :   6C;
  39C   :   7E;
  39D   :    C;
  39E   :    E;
  39F   :    0;
  3A0   :   7C;
  3A1   :   40;
  3A2   :   78;
  3A3   :    C;
  3A4   :    6;
  3A5   :   44;
  3A6   :   38;
  3A7   :    0;
  3A8   :   7C;
  3A9   :   40;
  3AA   :   78;
  3AB   :    C;
  3AC   :    6;
  3AD   :   44;
  3AE   :   38;
  3AF   :    0;
  3B0   :   1C;
  3B1   :   26;
  3B2   :   60;
  3B3   :   7C;
  3B4   :   66;
  3B5   :   32;
  3B6   :   1C;
  3B7   :    0;
  3B8   :   1C;
  3B9   :   26;
  3BA   :   60;
  3BB   :   7C;
  3BC   :   66;
  3BD   :   32;
  3BE   :   1C;
  3BF   :    0;
  3C0   :   7E;
  3C1   :   46;
  3C2   :    C;
  3C3   :   18;
  3C4   :   18;
  3C5   :   30;
  3C6   :   30;
  3C7   :    0;
  3C8   :   7E;
  3C9   :   46;
  3CA   :    C;
  3CB   :   18;
  3CC   :   18;
  3CD   :   30;
  3CE   :   30;
  3CF   :    0;
  3D0   :   38;
  3D1   :   44;
  3D2   :   74;
  3D3   :   3C;
  3D4   :   4E;
  3D5   :   66;
  3D6   :   3C;
  3D7   :    0;
  3D8   :   38;
  3D9   :   44;
  3DA   :   74;
  3DB   :   3C;
  3DC   :   4E;
  3DD   :   66;
  3DE   :   3C;
  3DF   :    0;
  3E0   :   38;
  3E1   :   4C;
  3E2   :   66;
  3E3   :   3E;
  3E4   :    6;
  3E5   :   64;
  3E6   :   38;
  3E7   :    0;
  3E8   :   38;
  3E9   :   4C;
  3EA   :   66;
  3EB   :   3E;
  3EC   :    6;
  3ED   :   64;
  3EE   :   38;
  3EF   :    0;
  3F0   :    0;
  3F1   :    0;
  3F2   :    0;
  3F3   :    0;
  3F4   :    0;
  3F5   :    0;
  3F6   :    0;
  3F7   :    0;
  3F8   :    0;
  3F9   :    0;
  3FA   :    0;
  3FB   :    0;
  3FC   :    0;
  3FD   :    0;
  3FE   :    0;
  3FF   :    0;
  400   :    0;
  401   :    0;
  402   :    0;
  403   :    0;
  404   :    0;
  405   :    0;
  406   :    0;
  407   :    0;
  408   :    0;
  409   :    0;
  40A   :    0;
  40B   :    0;
  40C   :    0;
  40D   :    0;
  40E   :    0;
  40F   :    0;
  410   :    0;
  411   :    0;
  412   :    0;
  413   :    0;
  414   :    0;
  415   :    0;
  416   :    0;
  417   :    0;
  418   :    0;
  419   :    0;
  41A   :    0;
  41B   :    0;
  41C   :    0;
  41D   :    0;
  41E   :    0;
  41F   :    0;
  420   :    0;
  421   :    0;
  422   :    0;
  423   :    0;
  424   :    0;
  425   :    0;
  426   :    0;
  427   :    0;
  428   :    0;
  429   :    0;
  42A   :    0;
  42B   :    0;
  42C   :    0;
  42D   :    0;
  42E   :    0;
  42F   :    0;
  430   :    0;
  431   :    0;
  432   :    0;
  433   :    0;
  434   :    0;
  435   :    0;
  436   :    0;
  437   :    0;
  438   :    0;
  439   :    0;
  43A   :    0;
  43B   :    0;
  43C   :    0;
  43D   :    0;
  43E   :    0;
  43F   :    0;
  440   :    0;
  441   :    0;
  442   :    0;
  443   :    0;
  444   :    0;
  445   :    0;
  446   :    0;
  447   :    0;
  448   :    0;
  449   :    0;
  44A   :    0;
  44B   :    0;
  44C   :    0;
  44D   :    0;
  44E   :    0;
  44F   :    0;
  450   :    0;
  451   :    0;
  452   :    0;
  453   :    0;
  454   :    0;
  455   :    0;
  456   :    0;
  457   :    0;
  458   :    0;
  459   :    0;
  45A   :    0;
  45B   :    0;
  45C   :    0;
  45D   :    0;
  45E   :    0;
  45F   :    0;
  460   :    0;
  461   :    0;
  462   :    0;
  463   :    0;
  464   :    0;
  465   :    0;
  466   :    0;
  467   :    0;
  468   :    0;
  469   :    0;
  46A   :    0;
  46B   :    0;
  46C   :    0;
  46D   :    0;
  46E   :    0;
  46F   :    0;
  470   :    0;
  471   :    0;
  472   :    0;
  473   :    0;
  474   :    0;
  475   :    0;
  476   :    0;
  477   :    0;
  478   :    0;
  479   :    0;
  47A   :    0;
  47B   :    0;
  47C   :    0;
  47D   :    0;
  47E   :    0;
  47F   :    0;
  480   :    0;
  481   :    0;
  482   :    0;
  483   :    0;
  484   :    0;
  485   :    0;
  486   :    0;
  487   :    0;
  488   :    0;
  489   :    0;
  48A   :    0;
  48B   :    0;
  48C   :    0;
  48D   :    0;
  48E   :    0;
  48F   :    0;
  490   :    0;
  491   :    0;
  492   :    0;
  493   :    0;
  494   :    0;
  495   :    0;
  496   :    0;
  497   :    0;
  498   :    0;
  499   :    0;
  49A   :    0;
  49B   :    0;
  49C   :    0;
  49D   :    0;
  49E   :    0;
  49F   :    0;
  4A0   :    0;
  4A1   :    0;
  4A2   :    0;
  4A3   :    0;
  4A4   :    0;
  4A5   :    0;
  4A6   :    0;
  4A7   :    0;
  4A8   :    0;
  4A9   :    0;
  4AA   :    0;
  4AB   :    0;
  4AC   :    0;
  4AD   :    0;
  4AE   :    0;
  4AF   :    0;
  4B0   :    0;
  4B1   :    0;
  4B2   :    0;
  4B3   :    0;
  4B4   :    0;
  4B5   :    0;
  4B6   :    0;
  4B7   :    0;
  4B8   :    0;
  4B9   :    0;
  4BA   :    0;
  4BB   :    0;
  4BC   :    0;
  4BD   :    0;
  4BE   :    0;
  4BF   :    0;
  4C0   :    0;
  4C1   :    0;
  4C2   :    0;
  4C3   :    0;
  4C4   :    0;
  4C5   :    0;
  4C6   :    0;
  4C7   :    0;
  4C8   :    0;
  4C9   :    0;
  4CA   :    0;
  4CB   :    0;
  4CC   :    0;
  4CD   :    0;
  4CE   :    0;
  4CF   :    0;
  4D0   :    0;
  4D1   :    0;
  4D2   :    0;
  4D3   :    0;
  4D4   :    0;
  4D5   :    0;
  4D6   :    0;
  4D7   :    0;
  4D8   :    0;
  4D9   :    0;
  4DA   :    0;
  4DB   :    0;
  4DC   :    0;
  4DD   :    0;
  4DE   :    0;
  4DF   :    0;
  4E0   :    0;
  4E1   :    0;
  4E2   :    0;
  4E3   :    0;
  4E4   :    0;
  4E5   :    0;
  4E6   :    0;
  4E7   :    0;
  4E8   :    0;
  4E9   :    0;
  4EA   :    0;
  4EB   :    0;
  4EC   :    0;
  4ED   :    0;
  4EE   :    0;
  4EF   :    0;
  4F0   :    0;
  4F1   :    0;
  4F2   :    0;
  4F3   :    0;
  4F4   :    0;
  4F5   :    0;
  4F6   :    0;
  4F7   :    0;
  4F8   :    0;
  4F9   :    0;
  4FA   :    0;
  4FB   :    0;
  4FC   :    0;
  4FD   :    0;
  4FE   :    0;
  4FF   :    0;
  500   :    0;
  501   :    0;
  502   :    0;
  503   :    0;
  504   :    0;
  505   :    0;
  506   :    0;
  507   :    0;
  508   :    0;
  509   :    0;
  50A   :    0;
  50B   :    0;
  50C   :    0;
  50D   :    0;
  50E   :    0;
  50F   :    0;
  510   :    0;
  511   :    0;
  512   :    0;
  513   :    0;
  514   :    0;
  515   :    0;
  516   :    0;
  517   :    0;
  518   :    0;
  519   :    0;
  51A   :    0;
  51B   :    0;
  51C   :    0;
  51D   :    0;
  51E   :    0;
  51F   :    0;
  520   :    0;
  521   :    0;
  522   :    0;
  523   :    0;
  524   :    0;
  525   :    0;
  526   :    0;
  527   :    0;
  528   :    0;
  529   :    0;
  52A   :    0;
  52B   :    0;
  52C   :    0;
  52D   :    0;
  52E   :    0;
  52F   :    0;
  530   :    0;
  531   :    0;
  532   :    0;
  533   :    0;
  534   :    0;
  535   :    0;
  536   :    0;
  537   :    0;
  538   :    0;
  539   :    0;
  53A   :    0;
  53B   :    0;
  53C   :    0;
  53D   :    0;
  53E   :    0;
  53F   :    0;
  540   :    0;
  541   :    0;
  542   :    0;
  543   :    0;
  544   :    0;
  545   :    0;
  546   :    0;
  547   :    0;
  548   :    0;
  549   :    0;
  54A   :    0;
  54B   :    0;
  54C   :    0;
  54D   :    0;
  54E   :    0;
  54F   :    0;
  550   :    0;
  551   :    0;
  552   :    0;
  553   :    0;
  554   :    0;
  555   :    0;
  556   :    0;
  557   :    0;
  558   :    0;
  559   :    0;
  55A   :    0;
  55B   :    0;
  55C   :    0;
  55D   :    0;
  55E   :    0;
  55F   :    0;
  560   :    0;
  561   :    0;
  562   :    0;
  563   :    0;
  564   :    0;
  565   :    0;
  566   :    0;
  567   :    0;
  568   :    0;
  569   :    0;
  56A   :    0;
  56B   :    0;
  56C   :    0;
  56D   :    0;
  56E   :    0;
  56F   :    0;
  570   :    0;
  571   :    0;
  572   :    0;
  573   :    0;
  574   :    0;
  575   :    0;
  576   :    0;
  577   :    0;
  578   :    0;
  579   :    0;
  57A   :    0;
  57B   :    0;
  57C   :    0;
  57D   :    0;
  57E   :    0;
  57F   :    0;
  580   :    0;
  581   :    0;
  582   :    0;
  583   :    0;
  584   :    0;
  585   :    0;
  586   :    0;
  587   :    0;
  588   :    0;
  589   :    0;
  58A   :    0;
  58B   :    0;
  58C   :    0;
  58D   :    0;
  58E   :    0;
  58F   :    0;
  590   :    0;
  591   :    0;
  592   :    0;
  593   :    0;
  594   :    0;
  595   :    0;
  596   :    0;
  597   :    0;
  598   :    0;
  599   :    0;
  59A   :    0;
  59B   :    0;
  59C   :    0;
  59D   :    0;
  59E   :    0;
  59F   :    0;
  5A0   :    0;
  5A1   :    0;
  5A2   :    0;
  5A3   :    0;
  5A4   :    0;
  5A5   :    0;
  5A6   :    0;
  5A7   :    0;
  5A8   :    0;
  5A9   :    0;
  5AA   :    0;
  5AB   :    0;
  5AC   :    0;
  5AD   :    0;
  5AE   :    0;
  5AF   :    0;
  5B0   :    0;
  5B1   :    0;
  5B2   :    0;
  5B3   :    0;
  5B4   :    0;
  5B5   :    0;
  5B6   :    0;
  5B7   :    0;
  5B8   :    0;
  5B9   :    0;
  5BA   :    0;
  5BB   :    0;
  5BC   :    0;
  5BD   :    0;
  5BE   :    0;
  5BF   :    0;
  5C0   :    0;
  5C1   :    0;
  5C2   :    0;
  5C3   :    0;
  5C4   :    0;
  5C5   :    0;
  5C6   :    0;
  5C7   :    0;
  5C8   :    0;
  5C9   :    0;
  5CA   :    0;
  5CB   :    0;
  5CC   :    0;
  5CD   :    0;
  5CE   :    0;
  5CF   :    0;
  5D0   :    0;
  5D1   :    0;
  5D2   :    0;
  5D3   :    0;
  5D4   :    0;
  5D5   :    0;
  5D6   :    0;
  5D7   :    0;
  5D8   :    0;
  5D9   :    0;
  5DA   :    0;
  5DB   :    0;
  5DC   :    0;
  5DD   :    0;
  5DE   :    0;
  5DF   :    0;
  5E0   :    0;
  5E1   :    0;
  5E2   :    0;
  5E3   :    0;
  5E4   :    0;
  5E5   :    0;
  5E6   :    0;
  5E7   :    0;
  5E8   :    0;
  5E9   :    0;
  5EA   :    0;
  5EB   :    0;
  5EC   :    0;
  5ED   :    0;
  5EE   :    0;
  5EF   :    0;
  5F0   :    0;
  5F1   :    0;
  5F2   :    0;
  5F3   :    0;
  5F4   :    0;
  5F5   :    0;
  5F6   :    0;
  5F7   :    0;
  5F8   :    0;
  5F9   :    0;
  5FA   :    0;
  5FB   :    0;
  5FC   :    0;
  5FD   :    0;
  5FE   :    0;
  5FF   :    0;
  600   :    0;
  601   :    0;
  602   :    0;
  603   :    0;
  604   :    0;
  605   :    0;
  606   :    0;
  607   :    0;
  608   :    0;
  609   :    0;
  60A   :    0;
  60B   :    0;
  60C   :    0;
  60D   :    0;
  60E   :    0;
  60F   :    0;
  610   :    0;
  611   :    0;
  612   :    0;
  613   :    0;
  614   :    0;
  615   :    0;
  616   :    0;
  617   :    0;
  618   :    0;
  619   :    0;
  61A   :    0;
  61B   :    0;
  61C   :    0;
  61D   :    0;
  61E   :    0;
  61F   :    0;
  620   :    0;
  621   :    0;
  622   :    0;
  623   :    0;
  624   :    0;
  625   :    0;
  626   :    0;
  627   :    0;
  628   :    0;
  629   :    0;
  62A   :    0;
  62B   :    0;
  62C   :    0;
  62D   :    0;
  62E   :    0;
  62F   :    0;
  630   :    0;
  631   :    0;
  632   :    0;
  633   :    0;
  634   :    0;
  635   :    0;
  636   :    0;
  637   :    0;
  638   :    0;
  639   :    0;
  63A   :    0;
  63B   :    0;
  63C   :    0;
  63D   :    0;
  63E   :    0;
  63F   :    0;
  640   :    0;
  641   :    0;
  642   :    0;
  643   :    0;
  644   :    0;
  645   :    0;
  646   :    0;
  647   :    0;
  648   :    0;
  649   :    0;
  64A   :    0;
  64B   :    0;
  64C   :    0;
  64D   :    0;
  64E   :    0;
  64F   :    0;
  650   :    0;
  651   :    0;
  652   :    0;
  653   :    0;
  654   :    0;
  655   :    0;
  656   :    0;
  657   :    0;
  658   :    0;
  659   :    0;
  65A   :    0;
  65B   :    0;
  65C   :    0;
  65D   :    0;
  65E   :    0;
  65F   :    0;
  660   :    0;
  661   :    0;
  662   :    0;
  663   :    0;
  664   :    0;
  665   :    0;
  666   :    0;
  667   :    0;
  668   :    0;
  669   :    0;
  66A   :    0;
  66B   :    0;
  66C   :    0;
  66D   :    0;
  66E   :    0;
  66F   :    0;
  670   :    0;
  671   :    0;
  672   :    0;
  673   :    0;
  674   :    0;
  675   :    0;
  676   :    0;
  677   :    0;
  678   :    0;
  679   :    0;
  67A   :    0;
  67B   :    0;
  67C   :    0;
  67D   :    0;
  67E   :    0;
  67F   :    0;
  680   :    0;
  681   :    0;
  682   :    0;
  683   :    0;
  684   :    0;
  685   :    0;
  686   :    0;
  687   :    0;
  688   :    0;
  689   :    0;
  68A   :    0;
  68B   :    0;
  68C   :    0;
  68D   :    0;
  68E   :    0;
  68F   :    0;
  690   :    0;
  691   :    0;
  692   :    0;
  693   :    0;
  694   :    0;
  695   :    0;
  696   :    0;
  697   :    0;
  698   :    0;
  699   :    0;
  69A   :    0;
  69B   :    0;
  69C   :    0;
  69D   :    0;
  69E   :    0;
  69F   :    0;
  6A0   :    0;
  6A1   :    0;
  6A2   :    0;
  6A3   :    0;
  6A4   :    0;
  6A5   :    0;
  6A6   :    0;
  6A7   :    0;
  6A8   :    0;
  6A9   :    0;
  6AA   :    0;
  6AB   :    0;
  6AC   :    0;
  6AD   :    0;
  6AE   :    0;
  6AF   :    0;
  6B0   :    0;
  6B1   :    0;
  6B2   :    0;
  6B3   :    0;
  6B4   :    0;
  6B5   :    0;
  6B6   :    0;
  6B7   :    0;
  6B8   :    0;
  6B9   :    0;
  6BA   :    0;
  6BB   :    0;
  6BC   :    0;
  6BD   :    0;
  6BE   :    0;
  6BF   :    0;
  6C0   :    0;
  6C1   :    0;
  6C2   :    0;
  6C3   :    0;
  6C4   :    0;
  6C5   :    0;
  6C6   :    0;
  6C7   :    0;
  6C8   :    0;
  6C9   :    0;
  6CA   :    0;
  6CB   :    0;
  6CC   :    0;
  6CD   :    0;
  6CE   :    0;
  6CF   :    0;
  6D0   :    0;
  6D1   :    0;
  6D2   :    0;
  6D3   :    0;
  6D4   :    0;
  6D5   :    0;
  6D6   :    0;
  6D7   :    0;
  6D8   :    0;
  6D9   :    0;
  6DA   :    0;
  6DB   :    0;
  6DC   :    0;
  6DD   :    0;
  6DE   :    0;
  6DF   :    0;
  6E0   :    0;
  6E1   :    0;
  6E2   :    0;
  6E3   :    0;
  6E4   :    0;
  6E5   :    0;
  6E6   :    0;
  6E7   :    0;
  6E8   :    0;
  6E9   :    0;
  6EA   :    0;
  6EB   :    0;
  6EC   :    0;
  6ED   :    0;
  6EE   :    0;
  6EF   :    0;
  6F0   :    0;
  6F1   :    0;
  6F2   :    0;
  6F3   :    0;
  6F4   :    0;
  6F5   :    0;
  6F6   :    0;
  6F7   :    0;
  6F8   :    0;
  6F9   :    0;
  6FA   :    0;
  6FB   :    0;
  6FC   :    0;
  6FD   :    0;
  6FE   :    0;
  6FF   :    0;
  700   :    0;
  701   :    0;
  702   :    0;
  703   :    0;
  704   :    0;
  705   :    0;
  706   :    0;
  707   :    0;
  708   :    0;
  709   :    0;
  70A   :    0;
  70B   :    0;
  70C   :    0;
  70D   :    0;
  70E   :    0;
  70F   :    0;
  710   :    0;
  711   :    0;
  712   :    0;
  713   :    0;
  714   :    0;
  715   :    0;
  716   :    0;
  717   :    0;
  718   :    0;
  719   :    0;
  71A   :    0;
  71B   :    0;
  71C   :    0;
  71D   :    0;
  71E   :    0;
  71F   :    0;
  720   :    0;
  721   :    0;
  722   :    0;
  723   :    0;
  724   :    0;
  725   :    0;
  726   :    0;
  727   :    0;
  728   :    0;
  729   :    0;
  72A   :    0;
  72B   :    0;
  72C   :    0;
  72D   :    0;
  72E   :    0;
  72F   :    0;
  730   :    0;
  731   :    0;
  732   :    0;
  733   :    0;
  734   :    0;
  735   :    0;
  736   :    0;
  737   :    0;
  738   :    0;
  739   :    0;
  73A   :    0;
  73B   :    0;
  73C   :    0;
  73D   :    0;
  73E   :    0;
  73F   :    0;
  740   :    0;
  741   :    0;
  742   :    0;
  743   :    0;
  744   :    0;
  745   :    0;
  746   :    0;
  747   :    0;
  748   :    0;
  749   :    0;
  74A   :    0;
  74B   :    0;
  74C   :    0;
  74D   :    0;
  74E   :    0;
  74F   :    0;
  750   :    0;
  751   :    0;
  752   :    0;
  753   :    0;
  754   :    0;
  755   :    0;
  756   :    0;
  757   :    0;
  758   :    0;
  759   :    0;
  75A   :    0;
  75B   :    0;
  75C   :    0;
  75D   :    0;
  75E   :    0;
  75F   :    0;
  760   :    0;
  761   :    0;
  762   :    0;
  763   :    0;
  764   :    0;
  765   :    0;
  766   :    0;
  767   :    0;
  768   :    0;
  769   :    0;
  76A   :    0;
  76B   :    0;
  76C   :    0;
  76D   :    0;
  76E   :    0;
  76F   :    0;
  770   :    0;
  771   :    0;
  772   :    0;
  773   :    0;
  774   :    0;
  775   :    0;
  776   :    0;
  777   :    0;
  778   :    0;
  779   :    0;
  77A   :    0;
  77B   :    0;
  77C   :    0;
  77D   :    0;
  77E   :    0;
  77F   :    0;
  780   :    0;
  781   :    0;
  782   :    0;
  783   :    0;
  784   :    0;
  785   :    0;
  786   :    0;
  787   :    0;
  788   :    0;
  789   :    0;
  78A   :    0;
  78B   :    0;
  78C   :    0;
  78D   :    0;
  78E   :    0;
  78F   :    0;
  790   :    0;
  791   :    0;
  792   :    0;
  793   :    0;
  794   :    0;
  795   :    0;
  796   :    0;
  797   :    0;
  798   :    0;
  799   :    0;
  79A   :    0;
  79B   :    0;
  79C   :    0;
  79D   :    0;
  79E   :    0;
  79F   :    0;
  7A0   :    0;
  7A1   :    0;
  7A2   :    0;
  7A3   :    0;
  7A4   :    0;
  7A5   :    0;
  7A6   :    0;
  7A7   :    0;
  7A8   :    0;
  7A9   :    0;
  7AA   :    0;
  7AB   :    0;
  7AC   :    0;
  7AD   :    0;
  7AE   :    0;
  7AF   :    0;
  7B0   :    0;
  7B1   :    0;
  7B2   :    0;
  7B3   :    0;
  7B4   :    0;
  7B5   :    0;
  7B6   :    0;
  7B7   :    0;
  7B8   :    0;
  7B9   :    0;
  7BA   :    0;
  7BB   :    0;
  7BC   :    0;
  7BD   :    0;
  7BE   :    0;
  7BF   :    0;
  7C0   :    0;
  7C1   :    0;
  7C2   :    0;
  7C3   :    0;
  7C4   :    0;
  7C5   :    0;
  7C6   :    0;
  7C7   :    0;
  7C8   :    0;
  7C9   :    0;
  7CA   :    0;
  7CB   :    0;
  7CC   :    0;
  7CD   :    0;
  7CE   :    0;
  7CF   :    0;
  7D0   :    0;
  7D1   :    0;
  7D2   :    0;
  7D3   :    0;
  7D4   :    0;
  7D5   :    0;
  7D6   :    0;
  7D7   :    0;
  7D8   :    0;
  7D9   :    0;
  7DA   :    0;
  7DB   :    0;
  7DC   :    0;
  7DD   :    0;
  7DE   :    0;
  7DF   :    0;
  7E0   :    0;
  7E1   :    0;
  7E2   :    0;
  7E3   :    0;
  7E4   :    0;
  7E5   :    0;
  7E6   :    0;
  7E7   :    0;
  7E8   :    0;
  7E9   :    0;
  7EA   :    0;
  7EB   :    0;
  7EC   :    0;
  7ED   :    0;
  7EE   :    0;
  7EF   :    0;
  7F0   :    0;
  7F1   :    0;
  7F2   :    0;
  7F3   :    0;
  7F4   :    0;
  7F5   :    0;
  7F6   :    0;
  7F7   :    0;
  7F8   :    0;
  7F9   :    0;
  7FA   :    0;
  7FB   :    0;
  7FC   :    0;
  7FD   :    0;
  7FE   :    0;
  7FF   :    0;
  800   :    0;
  801   :    0;
  802   :    0;
  803   :    0;
  804   :    0;
  805   :    0;
  806   :    0;
  807   :    0;
  808   :    0;
  809   :    0;
  80A   :    0;
  80B   :    0;
  80C   :    0;
  80D   :    0;
  80E   :    0;
  80F   :    0;
  810   :    0;
  811   :    0;
  812   :    0;
  813   :    0;
  814   :    0;
  815   :    0;
  816   :    0;
  817   :    0;
  818   :    0;
  819   :    0;
  81A   :    0;
  81B   :    0;
  81C   :    0;
  81D   :    0;
  81E   :    0;
  81F   :    0;
  820   :    0;
  821   :    0;
  822   :    0;
  823   :    0;
  824   :    0;
  825   :    0;
  826   :    0;
  827   :    0;
  828   :    0;
  829   :    0;
  82A   :    0;
  82B   :    0;
  82C   :    0;
  82D   :    0;
  82E   :    0;
  82F   :    0;
  830   :    0;
  831   :    0;
  832   :    0;
  833   :    0;
  834   :    0;
  835   :    0;
  836   :    0;
  837   :    0;
  838   :    0;
  839   :    0;
  83A   :    0;
  83B   :    0;
  83C   :    0;
  83D   :    0;
  83E   :    0;
  83F   :    0;
  840   :    0;
  841   :    0;
  842   :    0;
  843   :    0;
  844   :    0;
  845   :    0;
  846   :    0;
  847   :    0;
  848   :    0;
  849   :    0;
  84A   :    0;
  84B   :    0;
  84C   :    0;
  84D   :    0;
  84E   :    0;
  84F   :    0;
  850   :    0;
  851   :    0;
  852   :    0;
  853   :    0;
  854   :    0;
  855   :    0;
  856   :    0;
  857   :    0;
  858   :    0;
  859   :    0;
  85A   :    0;
  85B   :    0;
  85C   :    0;
  85D   :    0;
  85E   :    0;
  85F   :    0;
  860   :    0;
  861   :    0;
  862   :    0;
  863   :    0;
  864   :    0;
  865   :    0;
  866   :    0;
  867   :    0;
  868   :    0;
  869   :    0;
  86A   :    0;
  86B   :    0;
  86C   :    0;
  86D   :    0;
  86E   :    0;
  86F   :    0;
  870   :    0;
  871   :    0;
  872   :    0;
  873   :    0;
  874   :    0;
  875   :    0;
  876   :    0;
  877   :    0;
  878   :    0;
  879   :    0;
  87A   :    0;
  87B   :    0;
  87C   :    0;
  87D   :    0;
  87E   :    0;
  87F   :    0;
  880   :    0;
  881   :    0;
  882   :    0;
  883   :    0;
  884   :    0;
  885   :    0;
  886   :    0;
  887   :    0;
  888   :    0;
  889   :    0;
  88A   :    0;
  88B   :    0;
  88C   :    0;
  88D   :    0;
  88E   :    0;
  88F   :    0;
  890   :    0;
  891   :    0;
  892   :    0;
  893   :    0;
  894   :    0;
  895   :    0;
  896   :    0;
  897   :    0;
  898   :    0;
  899   :    0;
  89A   :    0;
  89B   :    0;
  89C   :    0;
  89D   :    0;
  89E   :    0;
  89F   :    0;
  8A0   :    0;
  8A1   :    0;
  8A2   :    0;
  8A3   :    0;
  8A4   :    0;
  8A5   :    0;
  8A6   :    0;
  8A7   :    0;
  8A8   :    0;
  8A9   :    0;
  8AA   :    0;
  8AB   :    0;
  8AC   :    0;
  8AD   :    0;
  8AE   :    0;
  8AF   :    0;
  8B0   :    0;
  8B1   :    0;
  8B2   :    0;
  8B3   :    0;
  8B4   :    0;
  8B5   :    0;
  8B6   :    0;
  8B7   :    0;
  8B8   :    0;
  8B9   :    0;
  8BA   :    0;
  8BB   :    0;
  8BC   :    0;
  8BD   :    0;
  8BE   :    0;
  8BF   :    0;
  8C0   :    0;
  8C1   :    0;
  8C2   :    0;
  8C3   :    0;
  8C4   :    0;
  8C5   :    0;
  8C6   :    0;
  8C7   :    0;
  8C8   :    0;
  8C9   :    0;
  8CA   :    0;
  8CB   :    0;
  8CC   :    0;
  8CD   :    0;
  8CE   :    0;
  8CF   :    0;
  8D0   :    0;
  8D1   :    0;
  8D2   :    0;
  8D3   :    0;
  8D4   :    0;
  8D5   :    0;
  8D6   :    0;
  8D7   :    0;
  8D8   :    0;
  8D9   :    0;
  8DA   :    0;
  8DB   :    0;
  8DC   :    0;
  8DD   :    0;
  8DE   :    0;
  8DF   :    0;
  8E0   :    0;
  8E1   :    0;
  8E2   :    0;
  8E3   :    0;
  8E4   :    0;
  8E5   :    0;
  8E6   :    0;
  8E7   :    0;
  8E8   :    0;
  8E9   :    0;
  8EA   :    0;
  8EB   :    0;
  8EC   :    0;
  8ED   :    0;
  8EE   :    0;
  8EF   :    0;
  8F0   :    0;
  8F1   :    0;
  8F2   :    0;
  8F3   :    0;
  8F4   :    0;
  8F5   :    0;
  8F6   :    0;
  8F7   :    0;
  8F8   :    0;
  8F9   :    0;
  8FA   :    0;
  8FB   :    0;
  8FC   :    0;
  8FD   :    0;
  8FE   :    0;
  8FF   :    0;
  900   :    0;
  901   :    0;
  902   :    0;
  903   :    0;
  904   :    0;
  905   :    0;
  906   :    0;
  907   :    0;
  908   :    0;
  909   :    0;
  90A   :    0;
  90B   :    0;
  90C   :    0;
  90D   :    0;
  90E   :    0;
  90F   :    0;
  910   :    0;
  911   :    0;
  912   :    0;
  913   :    0;
  914   :    0;
  915   :    0;
  916   :    0;
  917   :    0;
  918   :    0;
  919   :    0;
  91A   :    0;
  91B   :    0;
  91C   :    0;
  91D   :    0;
  91E   :    0;
  91F   :    0;
  920   :    0;
  921   :    0;
  922   :    0;
  923   :    0;
  924   :    0;
  925   :    0;
  926   :    0;
  927   :    0;
  928   :    0;
  929   :    0;
  92A   :    0;
  92B   :    0;
  92C   :    0;
  92D   :    0;
  92E   :    0;
  92F   :    0;
  930   :    0;
  931   :    0;
  932   :    0;
  933   :    0;
  934   :    0;
  935   :    0;
  936   :    0;
  937   :    0;
  938   :    0;
  939   :    0;
  93A   :    0;
  93B   :    0;
  93C   :    0;
  93D   :    0;
  93E   :    0;
  93F   :    0;
  940   :    0;
  941   :    0;
  942   :    0;
  943   :    0;
  944   :    0;
  945   :    0;
  946   :    0;
  947   :    0;
  948   :    0;
  949   :    0;
  94A   :    0;
  94B   :    0;
  94C   :    0;
  94D   :    0;
  94E   :    0;
  94F   :    0;
  950   :    0;
  951   :    0;
  952   :    0;
  953   :    0;
  954   :    0;
  955   :    0;
  956   :    0;
  957   :    0;
  958   :    0;
  959   :    0;
  95A   :    0;
  95B   :    0;
  95C   :    0;
  95D   :    0;
  95E   :    0;
  95F   :    0;
  960   :    0;
  961   :    0;
  962   :    0;
  963   :    0;
  964   :    0;
  965   :    0;
  966   :    0;
  967   :    0;
  968   :    0;
  969   :    0;
  96A   :    0;
  96B   :    0;
  96C   :    0;
  96D   :    0;
  96E   :    0;
  96F   :    0;
  970   :    0;
  971   :    0;
  972   :    0;
  973   :    0;
  974   :    0;
  975   :    0;
  976   :    0;
  977   :    0;
  978   :    0;
  979   :    0;
  97A   :    0;
  97B   :    0;
  97C   :    0;
  97D   :    0;
  97E   :    0;
  97F   :    0;
  980   :    0;
  981   :    0;
  982   :    0;
  983   :    0;
  984   :    0;
  985   :    0;
  986   :    0;
  987   :    0;
  988   :    0;
  989   :    0;
  98A   :    0;
  98B   :    0;
  98C   :    0;
  98D   :    0;
  98E   :    0;
  98F   :    0;
  990   :    0;
  991   :    0;
  992   :    0;
  993   :    0;
  994   :    0;
  995   :    0;
  996   :    0;
  997   :    0;
  998   :    0;
  999   :    0;
  99A   :    0;
  99B   :    0;
  99C   :    0;
  99D   :    0;
  99E   :    0;
  99F   :    0;
  9A0   :    0;
  9A1   :    0;
  9A2   :    0;
  9A3   :    0;
  9A4   :    0;
  9A5   :    0;
  9A6   :    0;
  9A7   :    0;
  9A8   :    0;
  9A9   :    0;
  9AA   :    0;
  9AB   :    0;
  9AC   :    0;
  9AD   :    0;
  9AE   :    0;
  9AF   :    0;
  9B0   :    0;
  9B1   :    0;
  9B2   :    0;
  9B3   :    0;
  9B4   :    0;
  9B5   :    0;
  9B6   :    0;
  9B7   :    0;
  9B8   :    0;
  9B9   :    0;
  9BA   :    0;
  9BB   :    0;
  9BC   :    0;
  9BD   :    0;
  9BE   :    0;
  9BF   :    0;
  9C0   :    0;
  9C1   :    0;
  9C2   :    0;
  9C3   :    0;
  9C4   :    0;
  9C5   :    0;
  9C6   :    0;
  9C7   :    0;
  9C8   :    0;
  9C9   :    0;
  9CA   :    0;
  9CB   :    0;
  9CC   :    0;
  9CD   :    0;
  9CE   :    0;
  9CF   :    0;
  9D0   :    0;
  9D1   :    0;
  9D2   :    0;
  9D3   :    0;
  9D4   :    0;
  9D5   :    0;
  9D6   :    0;
  9D7   :    0;
  9D8   :    0;
  9D9   :    0;
  9DA   :    0;
  9DB   :    0;
  9DC   :    0;
  9DD   :    0;
  9DE   :    0;
  9DF   :    0;
  9E0   :    0;
  9E1   :    0;
  9E2   :    0;
  9E3   :    0;
  9E4   :    0;
  9E5   :    0;
  9E6   :    0;
  9E7   :    0;
  9E8   :    0;
  9E9   :    0;
  9EA   :    0;
  9EB   :    0;
  9EC   :    0;
  9ED   :    0;
  9EE   :    0;
  9EF   :    0;
  9F0   :    0;
  9F1   :    0;
  9F2   :    0;
  9F3   :    0;
  9F4   :    0;
  9F5   :    0;
  9F6   :    0;
  9F7   :    0;
  9F8   :    0;
  9F9   :    0;
  9FA   :    0;
  9FB   :    0;
  9FC   :    0;
  9FD   :    0;
  9FE   :    0;
  9FF   :    0;
  A00   :    0;
  A01   :    0;
  A02   :    0;
  A03   :    0;
  A04   :    0;
  A05   :    0;
  A06   :    0;
  A07   :    0;
  A08   :    0;
  A09   :    0;
  A0A   :    0;
  A0B   :    0;
  A0C   :    0;
  A0D   :    0;
  A0E   :    0;
  A0F   :    0;
  A10   :    0;
  A11   :    0;
  A12   :    0;
  A13   :    0;
  A14   :    0;
  A15   :    0;
  A16   :    0;
  A17   :    0;
  A18   :    0;
  A19   :    0;
  A1A   :    0;
  A1B   :    0;
  A1C   :    0;
  A1D   :    0;
  A1E   :    0;
  A1F   :    0;
  A20   :    0;
  A21   :    0;
  A22   :    0;
  A23   :    0;
  A24   :    0;
  A25   :    0;
  A26   :    0;
  A27   :    0;
  A28   :    0;
  A29   :    0;
  A2A   :    0;
  A2B   :    0;
  A2C   :    0;
  A2D   :    0;
  A2E   :    0;
  A2F   :    0;
  A30   :    0;
  A31   :    0;
  A32   :    0;
  A33   :    0;
  A34   :    0;
  A35   :    0;
  A36   :    0;
  A37   :    0;
  A38   :    0;
  A39   :    0;
  A3A   :    0;
  A3B   :    0;
  A3C   :    0;
  A3D   :    0;
  A3E   :    0;
  A3F   :    0;
  A40   :    0;
  A41   :    0;
  A42   :    0;
  A43   :    0;
  A44   :    0;
  A45   :    0;
  A46   :    0;
  A47   :    0;
  A48   :    0;
  A49   :    0;
  A4A   :    0;
  A4B   :    0;
  A4C   :    0;
  A4D   :    0;
  A4E   :    0;
  A4F   :    0;
  A50   :    0;
  A51   :    0;
  A52   :    0;
  A53   :    0;
  A54   :    0;
  A55   :    0;
  A56   :    0;
  A57   :    0;
  A58   :    0;
  A59   :    0;
  A5A   :    0;
  A5B   :    0;
  A5C   :    0;
  A5D   :    0;
  A5E   :    0;
  A5F   :    0;
  A60   :    0;
  A61   :    0;
  A62   :    0;
  A63   :    0;
  A64   :    0;
  A65   :    0;
  A66   :    0;
  A67   :    0;
  A68   :    0;
  A69   :    0;
  A6A   :    0;
  A6B   :    0;
  A6C   :    0;
  A6D   :    0;
  A6E   :    0;
  A6F   :    0;
  A70   :    0;
  A71   :    0;
  A72   :    0;
  A73   :    0;
  A74   :    0;
  A75   :    0;
  A76   :    0;
  A77   :    0;
  A78   :    0;
  A79   :    0;
  A7A   :    0;
  A7B   :    0;
  A7C   :    0;
  A7D   :    0;
  A7E   :    0;
  A7F   :    0;
  A80   :    0;
  A81   :    0;
  A82   :    0;
  A83   :    0;
  A84   :    0;
  A85   :    0;
  A86   :    0;
  A87   :    0;
  A88   :    0;
  A89   :    0;
  A8A   :    0;
  A8B   :    0;
  A8C   :    0;
  A8D   :    0;
  A8E   :    0;
  A8F   :    0;
  A90   :    0;
  A91   :    0;
  A92   :    0;
  A93   :    0;
  A94   :    0;
  A95   :    0;
  A96   :    0;
  A97   :    0;
  A98   :    0;
  A99   :    0;
  A9A   :    0;
  A9B   :    0;
  A9C   :    0;
  A9D   :    0;
  A9E   :    0;
  A9F   :    0;
  AA0   :    0;
  AA1   :    0;
  AA2   :    0;
  AA3   :    0;
  AA4   :    0;
  AA5   :    0;
  AA6   :    0;
  AA7   :    0;
  AA8   :    0;
  AA9   :    0;
  AAA   :    0;
  AAB   :    0;
  AAC   :    0;
  AAD   :    0;
  AAE   :    0;
  AAF   :    0;
  AB0   :    0;
  AB1   :    0;
  AB2   :    0;
  AB3   :    0;
  AB4   :    0;
  AB5   :    0;
  AB6   :    0;
  AB7   :    0;
  AB8   :    0;
  AB9   :    0;
  ABA   :    0;
  ABB   :    0;
  ABC   :    0;
  ABD   :    0;
  ABE   :    0;
  ABF   :    0;
  AC0   :    0;
  AC1   :    0;
  AC2   :    0;
  AC3   :    0;
  AC4   :    0;
  AC5   :    0;
  AC6   :    0;
  AC7   :    0;
  AC8   :    0;
  AC9   :    0;
  ACA   :    0;
  ACB   :    0;
  ACC   :    0;
  ACD   :    0;
  ACE   :    0;
  ACF   :    0;
  AD0   :    0;
  AD1   :    0;
  AD2   :    0;
  AD3   :    0;
  AD4   :    0;
  AD5   :    0;
  AD6   :    0;
  AD7   :    0;
  AD8   :    0;
  AD9   :    0;
  ADA   :    0;
  ADB   :    0;
  ADC   :    0;
  ADD   :    0;
  ADE   :    0;
  ADF   :    0;
  AE0   :    0;
  AE1   :    0;
  AE2   :    0;
  AE3   :    0;
  AE4   :    0;
  AE5   :    0;
  AE6   :    0;
  AE7   :    0;
  AE8   :    0;
  AE9   :    0;
  AEA   :    0;
  AEB   :    0;
  AEC   :    0;
  AED   :    0;
  AEE   :    0;
  AEF   :    0;
  AF0   :    0;
  AF1   :    0;
  AF2   :    0;
  AF3   :    0;
  AF4   :    0;
  AF5   :    0;
  AF6   :    0;
  AF7   :    0;
  AF8   :    0;
  AF9   :    0;
  AFA   :    0;
  AFB   :    0;
  AFC   :    0;
  AFD   :    0;
  AFE   :    0;
  AFF   :    0;
  B00   :    0;
  B01   :    0;
  B02   :    0;
  B03   :    0;
  B04   :    0;
  B05   :    0;
  B06   :    0;
  B07   :    0;
  B08   :    0;
  B09   :    0;
  B0A   :    0;
  B0B   :    0;
  B0C   :    0;
  B0D   :    0;
  B0E   :    0;
  B0F   :    0;
  B10   :    0;
  B11   :    0;
  B12   :    0;
  B13   :    0;
  B14   :    0;
  B15   :    0;
  B16   :    0;
  B17   :    0;
  B18   :    0;
  B19   :    0;
  B1A   :    0;
  B1B   :    0;
  B1C   :    0;
  B1D   :    0;
  B1E   :    0;
  B1F   :    0;
  B20   :    0;
  B21   :    0;
  B22   :    0;
  B23   :    0;
  B24   :    0;
  B25   :    0;
  B26   :    0;
  B27   :    0;
  B28   :    0;
  B29   :    0;
  B2A   :    0;
  B2B   :    0;
  B2C   :    0;
  B2D   :    0;
  B2E   :    0;
  B2F   :    0;
  B30   :    0;
  B31   :    0;
  B32   :    0;
  B33   :    0;
  B34   :    0;
  B35   :    0;
  B36   :    0;
  B37   :    0;
  B38   :    0;
  B39   :    0;
  B3A   :    0;
  B3B   :    0;
  B3C   :    0;
  B3D   :    0;
  B3E   :    0;
  B3F   :    0;
  B40   :    0;
  B41   :    0;
  B42   :    0;
  B43   :    0;
  B44   :    0;
  B45   :    0;
  B46   :    0;
  B47   :    0;
  B48   :    0;
  B49   :    0;
  B4A   :    0;
  B4B   :    0;
  B4C   :    0;
  B4D   :    0;
  B4E   :    0;
  B4F   :    0;
  B50   :    0;
  B51   :    0;
  B52   :    0;
  B53   :    0;
  B54   :    0;
  B55   :    0;
  B56   :    0;
  B57   :    0;
  B58   :    0;
  B59   :    0;
  B5A   :    0;
  B5B   :    0;
  B5C   :    0;
  B5D   :    0;
  B5E   :    0;
  B5F   :    0;
  B60   :    0;
  B61   :    0;
  B62   :    0;
  B63   :    0;
  B64   :    0;
  B65   :    0;
  B66   :    0;
  B67   :    0;
  B68   :    0;
  B69   :    0;
  B6A   :    0;
  B6B   :    0;
  B6C   :    0;
  B6D   :    0;
  B6E   :    0;
  B6F   :    0;
  B70   :    0;
  B71   :    0;
  B72   :    0;
  B73   :    0;
  B74   :    0;
  B75   :    0;
  B76   :    0;
  B77   :    0;
  B78   :    0;
  B79   :    0;
  B7A   :    0;
  B7B   :    0;
  B7C   :    0;
  B7D   :    0;
  B7E   :    0;
  B7F   :    0;
  B80   :    0;
  B81   :    0;
  B82   :    0;
  B83   :    0;
  B84   :    0;
  B85   :    0;
  B86   :    0;
  B87   :    0;
  B88   :    0;
  B89   :    0;
  B8A   :    0;
  B8B   :    0;
  B8C   :    0;
  B8D   :    0;
  B8E   :    0;
  B8F   :    0;
  B90   :    0;
  B91   :    0;
  B92   :    0;
  B93   :    0;
  B94   :    0;
  B95   :    0;
  B96   :    0;
  B97   :    0;
  B98   :    0;
  B99   :    0;
  B9A   :    0;
  B9B   :    0;
  B9C   :    0;
  B9D   :    0;
  B9E   :    0;
  B9F   :    0;
  BA0   :    0;
  BA1   :    0;
  BA2   :    0;
  BA3   :    0;
  BA4   :    0;
  BA5   :    0;
  BA6   :    0;
  BA7   :    0;
  BA8   :    0;
  BA9   :    0;
  BAA   :    0;
  BAB   :    0;
  BAC   :    0;
  BAD   :    0;
  BAE   :    0;
  BAF   :    0;
  BB0   :    0;
  BB1   :    0;
  BB2   :    0;
  BB3   :    0;
  BB4   :    0;
  BB5   :    0;
  BB6   :    0;
  BB7   :    0;
  BB8   :    0;
  BB9   :    0;
  BBA   :    0;
  BBB   :    0;
  BBC   :    0;
  BBD   :    0;
  BBE   :    0;
  BBF   :    0;
  BC0   :    0;
  BC1   :    0;
  BC2   :    0;
  BC3   :    0;
  BC4   :    0;
  BC5   :    0;
  BC6   :    0;
  BC7   :    0;
  BC8   :    0;
  BC9   :    0;
  BCA   :    0;
  BCB   :    0;
  BCC   :    0;
  BCD   :    0;
  BCE   :    0;
  BCF   :    0;
  BD0   :    0;
  BD1   :    0;
  BD2   :    0;
  BD3   :    0;
  BD4   :    0;
  BD5   :    0;
  BD6   :    0;
  BD7   :    0;
  BD8   :    0;
  BD9   :    0;
  BDA   :    0;
  BDB   :    0;
  BDC   :    0;
  BDD   :    0;
  BDE   :    0;
  BDF   :    0;
  BE0   :    0;
  BE1   :    0;
  BE2   :    0;
  BE3   :    0;
  BE4   :    0;
  BE5   :    0;
  BE6   :    0;
  BE7   :    0;
  BE8   :    0;
  BE9   :    0;
  BEA   :    0;
  BEB   :    0;
  BEC   :    0;
  BED   :    0;
  BEE   :    0;
  BEF   :    0;
  BF0   :    0;
  BF1   :    0;
  BF2   :    0;
  BF3   :    0;
  BF4   :    0;
  BF5   :    0;
  BF6   :    0;
  BF7   :    0;
  BF8   :    0;
  BF9   :    0;
  BFA   :    0;
  BFB   :    0;
  BFC   :    0;
  BFD   :    0;
  BFE   :    0;
  BFF   :    0;
  C00   :    0;
  C01   :    0;
  C02   :    0;
  C03   :    0;
  C04   :    0;
  C05   :    0;
  C06   :    0;
  C07   :    0;
  C08   :    0;
  C09   :    0;
  C0A   :    0;
  C0B   :    0;
  C0C   :    0;
  C0D   :    0;
  C0E   :    0;
  C0F   :    0;
  C10   :    0;
  C11   :    0;
  C12   :    0;
  C13   :    0;
  C14   :    0;
  C15   :    0;
  C16   :    0;
  C17   :    0;
  C18   :    0;
  C19   :    0;
  C1A   :    0;
  C1B   :    0;
  C1C   :    0;
  C1D   :    0;
  C1E   :    0;
  C1F   :    0;
  C20   :    0;
  C21   :    0;
  C22   :    0;
  C23   :    0;
  C24   :    0;
  C25   :    0;
  C26   :    0;
  C27   :    0;
  C28   :    0;
  C29   :    0;
  C2A   :    0;
  C2B   :    0;
  C2C   :    0;
  C2D   :    0;
  C2E   :    0;
  C2F   :    0;
  C30   :    0;
  C31   :    0;
  C32   :    0;
  C33   :    0;
  C34   :    0;
  C35   :    0;
  C36   :    0;
  C37   :    0;
  C38   :    0;
  C39   :    0;
  C3A   :    0;
  C3B   :    0;
  C3C   :    0;
  C3D   :    0;
  C3E   :    0;
  C3F   :    0;
  C40   :    0;
  C41   :    0;
  C42   :    0;
  C43   :    0;
  C44   :    0;
  C45   :    0;
  C46   :    0;
  C47   :    0;
  C48   :    0;
  C49   :    0;
  C4A   :    0;
  C4B   :    0;
  C4C   :    0;
  C4D   :    0;
  C4E   :    0;
  C4F   :    0;
  C50   :    0;
  C51   :    0;
  C52   :    0;
  C53   :    0;
  C54   :    0;
  C55   :    0;
  C56   :    0;
  C57   :    0;
  C58   :    0;
  C59   :    0;
  C5A   :    0;
  C5B   :    0;
  C5C   :    0;
  C5D   :    0;
  C5E   :    0;
  C5F   :    0;
  C60   :    0;
  C61   :    0;
  C62   :    0;
  C63   :    0;
  C64   :    0;
  C65   :    0;
  C66   :    0;
  C67   :    0;
  C68   :    0;
  C69   :    0;
  C6A   :    0;
  C6B   :    0;
  C6C   :    0;
  C6D   :    0;
  C6E   :    0;
  C6F   :    0;
  C70   :    0;
  C71   :    0;
  C72   :    0;
  C73   :    0;
  C74   :    0;
  C75   :    0;
  C76   :    0;
  C77   :    0;
  C78   :    0;
  C79   :    0;
  C7A   :    0;
  C7B   :    0;
  C7C   :    0;
  C7D   :    0;
  C7E   :    0;
  C7F   :    0;
  C80   :    0;
  C81   :    0;
  C82   :    0;
  C83   :    0;
  C84   :    0;
  C85   :    0;
  C86   :    0;
  C87   :    0;
  C88   :    0;
  C89   :    0;
  C8A   :    0;
  C8B   :    0;
  C8C   :    0;
  C8D   :    0;
  C8E   :    0;
  C8F   :    0;
  C90   :    0;
  C91   :    0;
  C92   :    0;
  C93   :    0;
  C94   :    0;
  C95   :    0;
  C96   :    0;
  C97   :    0;
  C98   :    0;
  C99   :    0;
  C9A   :    0;
  C9B   :    0;
  C9C   :    0;
  C9D   :    0;
  C9E   :    0;
  C9F   :    0;
  CA0   :    0;
  CA1   :    0;
  CA2   :    0;
  CA3   :    0;
  CA4   :    0;
  CA5   :    0;
  CA6   :    0;
  CA7   :    0;
  CA8   :    0;
  CA9   :    0;
  CAA   :    0;
  CAB   :    0;
  CAC   :    0;
  CAD   :    0;
  CAE   :    0;
  CAF   :    0;
  CB0   :    0;
  CB1   :    0;
  CB2   :    0;
  CB3   :    0;
  CB4   :    0;
  CB5   :    0;
  CB6   :    0;
  CB7   :    0;
  CB8   :    0;
  CB9   :    0;
  CBA   :    0;
  CBB   :    0;
  CBC   :    0;
  CBD   :    0;
  CBE   :    0;
  CBF   :    0;
  CC0   :    0;
  CC1   :    0;
  CC2   :    0;
  CC3   :    0;
  CC4   :    0;
  CC5   :    0;
  CC6   :    0;
  CC7   :    0;
  CC8   :    0;
  CC9   :    0;
  CCA   :    0;
  CCB   :    0;
  CCC   :    0;
  CCD   :    0;
  CCE   :    0;
  CCF   :    0;
  CD0   :    0;
  CD1   :    0;
  CD2   :    0;
  CD3   :    0;
  CD4   :    0;
  CD5   :    0;
  CD6   :    0;
  CD7   :    0;
  CD8   :    0;
  CD9   :    0;
  CDA   :    0;
  CDB   :    0;
  CDC   :    0;
  CDD   :    0;
  CDE   :    0;
  CDF   :    0;
  CE0   :    0;
  CE1   :    0;
  CE2   :    0;
  CE3   :    0;
  CE4   :    0;
  CE5   :    0;
  CE6   :    0;
  CE7   :    0;
  CE8   :    0;
  CE9   :    0;
  CEA   :    0;
  CEB   :    0;
  CEC   :    0;
  CED   :    0;
  CEE   :    0;
  CEF   :    0;
  CF0   :    0;
  CF1   :    0;
  CF2   :    0;
  CF3   :    0;
  CF4   :    0;
  CF5   :    0;
  CF6   :    0;
  CF7   :    0;
  CF8   :    0;
  CF9   :    0;
  CFA   :    0;
  CFB   :    0;
  CFC   :    0;
  CFD   :    0;
  CFE   :    0;
  CFF   :    0;
  D00   :    0;
  D01   :    0;
  D02   :    0;
  D03   :    0;
  D04   :    0;
  D05   :    0;
  D06   :    0;
  D07   :    0;
  D08   :    0;
  D09   :    0;
  D0A   :    0;
  D0B   :    0;
  D0C   :    0;
  D0D   :    0;
  D0E   :    0;
  D0F   :    0;
  D10   :    0;
  D11   :    0;
  D12   :    0;
  D13   :    0;
  D14   :    0;
  D15   :    0;
  D16   :    0;
  D17   :    0;
  D18   :    0;
  D19   :    0;
  D1A   :    0;
  D1B   :    0;
  D1C   :    0;
  D1D   :    0;
  D1E   :    0;
  D1F   :    0;
  D20   :    0;
  D21   :    0;
  D22   :    0;
  D23   :    0;
  D24   :    0;
  D25   :    0;
  D26   :    0;
  D27   :    0;
  D28   :    0;
  D29   :    0;
  D2A   :    0;
  D2B   :    0;
  D2C   :    0;
  D2D   :    0;
  D2E   :    0;
  D2F   :    0;
  D30   :    0;
  D31   :    0;
  D32   :    0;
  D33   :    0;
  D34   :    0;
  D35   :    0;
  D36   :    0;
  D37   :    0;
  D38   :    0;
  D39   :    0;
  D3A   :    0;
  D3B   :    0;
  D3C   :    0;
  D3D   :    0;
  D3E   :    0;
  D3F   :    0;
  D40   :    0;
  D41   :    0;
  D42   :    0;
  D43   :    0;
  D44   :    0;
  D45   :    0;
  D46   :    0;
  D47   :    0;
  D48   :    0;
  D49   :    0;
  D4A   :    0;
  D4B   :    0;
  D4C   :    0;
  D4D   :    0;
  D4E   :    0;
  D4F   :    0;
  D50   :    0;
  D51   :    0;
  D52   :    0;
  D53   :    0;
  D54   :    0;
  D55   :    0;
  D56   :    0;
  D57   :    0;
  D58   :    0;
  D59   :    0;
  D5A   :    0;
  D5B   :    0;
  D5C   :    0;
  D5D   :    0;
  D5E   :    0;
  D5F   :    0;
  D60   :    0;
  D61   :    0;
  D62   :    0;
  D63   :    0;
  D64   :    0;
  D65   :    0;
  D66   :    0;
  D67   :    0;
  D68   :    0;
  D69   :    0;
  D6A   :    0;
  D6B   :    0;
  D6C   :    0;
  D6D   :    0;
  D6E   :    0;
  D6F   :    0;
  D70   :    0;
  D71   :    0;
  D72   :    0;
  D73   :    0;
  D74   :    0;
  D75   :    0;
  D76   :    0;
  D77   :    0;
  D78   :    0;
  D79   :    0;
  D7A   :    0;
  D7B   :    0;
  D7C   :    0;
  D7D   :    0;
  D7E   :    0;
  D7F   :    0;
  D80   :    0;
  D81   :    0;
  D82   :    0;
  D83   :    0;
  D84   :    0;
  D85   :    0;
  D86   :    0;
  D87   :    0;
  D88   :    0;
  D89   :    0;
  D8A   :    0;
  D8B   :    0;
  D8C   :    0;
  D8D   :    0;
  D8E   :    0;
  D8F   :    0;
  D90   :    0;
  D91   :    0;
  D92   :    0;
  D93   :    0;
  D94   :    0;
  D95   :    0;
  D96   :    0;
  D97   :    0;
  D98   :    0;
  D99   :    0;
  D9A   :    0;
  D9B   :    0;
  D9C   :    0;
  D9D   :    0;
  D9E   :    0;
  D9F   :    0;
  DA0   :    0;
  DA1   :    0;
  DA2   :    0;
  DA3   :    0;
  DA4   :    0;
  DA5   :    0;
  DA6   :    0;
  DA7   :    0;
  DA8   :    0;
  DA9   :    0;
  DAA   :    0;
  DAB   :    0;
  DAC   :    0;
  DAD   :    0;
  DAE   :    0;
  DAF   :    0;
  DB0   :    0;
  DB1   :    0;
  DB2   :    0;
  DB3   :    0;
  DB4   :    0;
  DB5   :    0;
  DB6   :    0;
  DB7   :    0;
  DB8   :    0;
  DB9   :    0;
  DBA   :    0;
  DBB   :    0;
  DBC   :    0;
  DBD   :    0;
  DBE   :    0;
  DBF   :    0;
  DC0   :    0;
  DC1   :    0;
  DC2   :    0;
  DC3   :    0;
  DC4   :    0;
  DC5   :    0;
  DC6   :    0;
  DC7   :    0;
  DC8   :    0;
  DC9   :    0;
  DCA   :    0;
  DCB   :    0;
  DCC   :    0;
  DCD   :    0;
  DCE   :    0;
  DCF   :    0;
  DD0   :    0;
  DD1   :    0;
  DD2   :    0;
  DD3   :    0;
  DD4   :    0;
  DD5   :    0;
  DD6   :    0;
  DD7   :    0;
  DD8   :    0;
  DD9   :    0;
  DDA   :    0;
  DDB   :    0;
  DDC   :    0;
  DDD   :    0;
  DDE   :    0;
  DDF   :    0;
  DE0   :    0;
  DE1   :    0;
  DE2   :    0;
  DE3   :    0;
  DE4   :    0;
  DE5   :    0;
  DE6   :    0;
  DE7   :    0;
  DE8   :    0;
  DE9   :    0;
  DEA   :    0;
  DEB   :    0;
  DEC   :    0;
  DED   :    0;
  DEE   :    0;
  DEF   :    0;
  DF0   :    0;
  DF1   :    0;
  DF2   :    0;
  DF3   :    0;
  DF4   :    0;
  DF5   :    0;
  DF6   :    0;
  DF7   :    0;
  DF8   :    0;
  DF9   :    0;
  DFA   :    0;
  DFB   :    0;
  DFC   :    0;
  DFD   :    0;
  DFE   :    0;
  DFF   :    0;
  E00   :    0;
  E01   :    0;
  E02   :    0;
  E03   :    0;
  E04   :    0;
  E05   :    0;
  E06   :    0;
  E07   :    0;
  E08   :    0;
  E09   :    0;
  E0A   :    0;
  E0B   :    0;
  E0C   :    0;
  E0D   :    0;
  E0E   :    0;
  E0F   :    0;
  E10   :    0;
  E11   :    0;
  E12   :    0;
  E13   :    0;
  E14   :    0;
  E15   :    0;
  E16   :    0;
  E17   :    0;
  E18   :    0;
  E19   :    0;
  E1A   :    0;
  E1B   :    0;
  E1C   :    0;
  E1D   :    0;
  E1E   :    0;
  E1F   :    0;
  E20   :    0;
  E21   :    0;
  E22   :    0;
  E23   :    0;
  E24   :    0;
  E25   :    0;
  E26   :    0;
  E27   :    0;
  E28   :    0;
  E29   :    0;
  E2A   :    0;
  E2B   :    0;
  E2C   :    0;
  E2D   :    0;
  E2E   :    0;
  E2F   :    0;
  E30   :    0;
  E31   :    0;
  E32   :    0;
  E33   :    0;
  E34   :    0;
  E35   :    0;
  E36   :    0;
  E37   :    0;
  E38   :    0;
  E39   :    0;
  E3A   :    0;
  E3B   :    0;
  E3C   :    0;
  E3D   :    0;
  E3E   :    0;
  E3F   :    0;
  E40   :    0;
  E41   :    0;
  E42   :    0;
  E43   :    0;
  E44   :    0;
  E45   :    0;
  E46   :    0;
  E47   :    0;
  E48   :    0;
  E49   :    0;
  E4A   :    0;
  E4B   :    0;
  E4C   :    0;
  E4D   :    0;
  E4E   :    0;
  E4F   :    0;
  E50   :    0;
  E51   :    0;
  E52   :    0;
  E53   :    0;
  E54   :    0;
  E55   :    0;
  E56   :    0;
  E57   :    0;
  E58   :    0;
  E59   :    0;
  E5A   :    0;
  E5B   :    0;
  E5C   :    0;
  E5D   :    0;
  E5E   :    0;
  E5F   :    0;
  E60   :    0;
  E61   :    0;
  E62   :    0;
  E63   :    0;
  E64   :    0;
  E65   :    0;
  E66   :    0;
  E67   :    0;
  E68   :    0;
  E69   :    0;
  E6A   :    0;
  E6B   :    0;
  E6C   :    0;
  E6D   :    0;
  E6E   :    0;
  E6F   :    0;
  E70   :    0;
  E71   :    0;
  E72   :    0;
  E73   :    0;
  E74   :    0;
  E75   :    0;
  E76   :    0;
  E77   :    0;
  E78   :    0;
  E79   :    0;
  E7A   :    0;
  E7B   :    0;
  E7C   :    0;
  E7D   :    0;
  E7E   :    0;
  E7F   :    0;
  E80   :    0;
  E81   :    0;
  E82   :    0;
  E83   :    0;
  E84   :    0;
  E85   :    0;
  E86   :    0;
  E87   :    0;
  E88   :    0;
  E89   :    0;
  E8A   :    0;
  E8B   :    0;
  E8C   :    0;
  E8D   :    0;
  E8E   :    0;
  E8F   :    0;
  E90   :    0;
  E91   :    0;
  E92   :    0;
  E93   :    0;
  E94   :    0;
  E95   :    0;
  E96   :    0;
  E97   :    0;
  E98   :    0;
  E99   :    0;
  E9A   :    0;
  E9B   :    0;
  E9C   :    0;
  E9D   :    0;
  E9E   :    0;
  E9F   :    0;
  EA0   :    0;
  EA1   :    0;
  EA2   :    0;
  EA3   :    0;
  EA4   :    0;
  EA5   :    0;
  EA6   :    0;
  EA7   :    0;
  EA8   :    0;
  EA9   :    0;
  EAA   :    0;
  EAB   :    0;
  EAC   :    0;
  EAD   :    0;
  EAE   :    0;
  EAF   :    0;
  EB0   :    0;
  EB1   :    0;
  EB2   :    0;
  EB3   :    0;
  EB4   :    0;
  EB5   :    0;
  EB6   :    0;
  EB7   :    0;
  EB8   :    0;
  EB9   :    0;
  EBA   :    0;
  EBB   :    0;
  EBC   :    0;
  EBD   :    0;
  EBE   :    0;
  EBF   :    0;
  EC0   :    0;
  EC1   :    0;
  EC2   :    0;
  EC3   :    0;
  EC4   :    0;
  EC5   :    0;
  EC6   :    0;
  EC7   :    0;
  EC8   :    0;
  EC9   :    0;
  ECA   :    0;
  ECB   :    0;
  ECC   :    0;
  ECD   :    0;
  ECE   :    0;
  ECF   :    0;
  ED0   :    0;
  ED1   :    0;
  ED2   :    0;
  ED3   :    0;
  ED4   :    0;
  ED5   :    0;
  ED6   :    0;
  ED7   :    0;
  ED8   :    0;
  ED9   :    0;
  EDA   :    0;
  EDB   :    0;
  EDC   :    0;
  EDD   :    0;
  EDE   :    0;
  EDF   :    0;
  EE0   :    0;
  EE1   :    0;
  EE2   :    0;
  EE3   :    0;
  EE4   :    0;
  EE5   :    0;
  EE6   :    0;
  EE7   :    0;
  EE8   :    0;
  EE9   :    0;
  EEA   :    0;
  EEB   :    0;
  EEC   :    0;
  EED   :    0;
  EEE   :    0;
  EEF   :    0;
  EF0   :    0;
  EF1   :    0;
  EF2   :    0;
  EF3   :    0;
  EF4   :    0;
  EF5   :    0;
  EF6   :    0;
  EF7   :    0;
  EF8   :    0;
  EF9   :    0;
  EFA   :    0;
  EFB   :    0;
  EFC   :    0;
  EFD   :    0;
  EFE   :    0;
  EFF   :    0;
  F00   :    0;
  F01   :    0;
  F02   :    0;
  F03   :    0;
  F04   :    0;
  F05   :    0;
  F06   :    0;
  F07   :    0;
  F08   :    0;
  F09   :    0;
  F0A   :    0;
  F0B   :    0;
  F0C   :    0;
  F0D   :    0;
  F0E   :    0;
  F0F   :    0;
  F10   :    0;
  F11   :    0;
  F12   :    0;
  F13   :    0;
  F14   :    0;
  F15   :    0;
  F16   :    0;
  F17   :    0;
  F18   :    0;
  F19   :    0;
  F1A   :    0;
  F1B   :    0;
  F1C   :    0;
  F1D   :    0;
  F1E   :    0;
  F1F   :    0;
  F20   :    0;
  F21   :    0;
  F22   :    0;
  F23   :    0;
  F24   :    0;
  F25   :    0;
  F26   :    0;
  F27   :    0;
  F28   :    0;
  F29   :    0;
  F2A   :    0;
  F2B   :    0;
  F2C   :    0;
  F2D   :    0;
  F2E   :    0;
  F2F   :    0;
  F30   :    0;
  F31   :    0;
  F32   :    0;
  F33   :    0;
  F34   :    0;
  F35   :    0;
  F36   :    0;
  F37   :    0;
  F38   :    0;
  F39   :    0;
  F3A   :    0;
  F3B   :    0;
  F3C   :    0;
  F3D   :    0;
  F3E   :    0;
  F3F   :    0;
  F40   :    0;
  F41   :    0;
  F42   :    0;
  F43   :    0;
  F44   :    0;
  F45   :    0;
  F46   :    0;
  F47   :    0;
  F48   :    0;
  F49   :    0;
  F4A   :    0;
  F4B   :    0;
  F4C   :    0;
  F4D   :    0;
  F4E   :    0;
  F4F   :    0;
  F50   :    0;
  F51   :    0;
  F52   :    0;
  F53   :    0;
  F54   :    0;
  F55   :    0;
  F56   :    0;
  F57   :    0;
  F58   :    0;
  F59   :    0;
  F5A   :    0;
  F5B   :    0;
  F5C   :    0;
  F5D   :    0;
  F5E   :    0;
  F5F   :    0;
  F60   :    0;
  F61   :    0;
  F62   :    0;
  F63   :    0;
  F64   :    0;
  F65   :    0;
  F66   :    0;
  F67   :    0;
  F68   :    0;
  F69   :    0;
  F6A   :    0;
  F6B   :    0;
  F6C   :    0;
  F6D   :    0;
  F6E   :    0;
  F6F   :    0;
  F70   :    0;
  F71   :    0;
  F72   :    0;
  F73   :    0;
  F74   :    0;
  F75   :    0;
  F76   :    0;
  F77   :    0;
  F78   :    0;
  F79   :    0;
  F7A   :    0;
  F7B   :    0;
  F7C   :    0;
  F7D   :    0;
  F7E   :    0;
  F7F   :    0;
  F80   :    0;
  F81   :    0;
  F82   :    0;
  F83   :    0;
  F84   :    0;
  F85   :    0;
  F86   :    0;
  F87   :    0;
  F88   :    0;
  F89   :    0;
  F8A   :    0;
  F8B   :    0;
  F8C   :    0;
  F8D   :    0;
  F8E   :    0;
  F8F   :    0;
  F90   :    0;
  F91   :    0;
  F92   :    0;
  F93   :    0;
  F94   :    0;
  F95   :    0;
  F96   :    0;
  F97   :    0;
  F98   :    0;
  F99   :    0;
  F9A   :    0;
  F9B   :    0;
  F9C   :    0;
  F9D   :    0;
  F9E   :    0;
  F9F   :    0;
  FA0   :    0;
  FA1   :    0;
  FA2   :    0;
  FA3   :    0;
  FA4   :    0;
  FA5   :    0;
  FA6   :    0;
  FA7   :    0;
  FA8   :    0;
  FA9   :    0;
  FAA   :    0;
  FAB   :    0;
  FAC   :    0;
  FAD   :    0;
  FAE   :    0;
  FAF   :    0;
  FB0   :    0;
  FB1   :    0;
  FB2   :    0;
  FB3   :    0;
  FB4   :    0;
  FB5   :    0;
  FB6   :    0;
  FB7   :    0;
  FB8   :    0;
  FB9   :    0;
  FBA   :    0;
  FBB   :    0;
  FBC   :    0;
  FBD   :    0;
  FBE   :    0;
  FBF   :    0;
  FC0   :    0;
  FC1   :    0;
  FC2   :    0;
  FC3   :    0;
  FC4   :    0;
  FC5   :    0;
  FC6   :    0;
  FC7   :    0;
  FC8   :    0;
  FC9   :    0;
  FCA   :    0;
  FCB   :    0;
  FCC   :    0;
  FCD   :    0;
  FCE   :    0;
  FCF   :    0;
  FD0   :    0;
  FD1   :    0;
  FD2   :    0;
  FD3   :    0;
  FD4   :    0;
  FD5   :    0;
  FD6   :    0;
  FD7   :    0;
  FD8   :    0;
  FD9   :    0;
  FDA   :    0;
  FDB   :    0;
  FDC   :    0;
  FDD   :    0;
  FDE   :    0;
  FDF   :    0;
  FE0   :    0;
  FE1   :    0;
  FE2   :    0;
  FE3   :    0;
  FE4   :    0;
  FE5   :    0;
  FE6   :    0;
  FE7   :    0;
  FE8   :    0;
  FE9   :    0;
  FEA   :    0;
  FEB   :    0;
  FEC   :    0;
  FED   :    0;
  FEE   :    0;
  FEF   :    0;
  FF0   :    0;
  FF1   :    0;
  FF2   :    0;
  FF3   :    0;
  FF4   :    0;
  FF5   :    0;
  FF6   :    0;
  FF7   :    0;
  FF8   :    0;
  FF9   :    0;
  FFA   :    0;
  FFB   :    0;
  FFC   :    0;
  FFD   :    0;
  FFE   :    0;
  FFF   :    0;
 1000   :    0;
 1001   :    0;
 1002   :    0;
 1003   :    0;
 1004   :    0;
 1005   :    0;
 1006   :    0;
 1007   :    0;
 1008   :    0;
 1009   :    0;
 100A   :    0;
 100B   :    0;
 100C   :    0;
 100D   :    0;
 100E   :    0;
 100F   :    0;
 1010   :    0;
 1011   :    0;
 1012   :    0;
 1013   :    0;
 1014   :    0;
 1015   :    0;
 1016   :    0;
 1017   :    0;
 1018   :    0;
 1019   :    0;
 101A   :    0;
 101B   :    0;
 101C   :    0;
 101D   :    0;
 101E   :    0;
 101F   :    0;
 1020   :    0;
 1021   :    0;
 1022   :    0;
 1023   :    0;
 1024   :    0;
 1025   :    0;
 1026   :    0;
 1027   :    0;
 1028   :    0;
 1029   :    0;
 102A   :    0;
 102B   :    0;
 102C   :    0;
 102D   :    0;
 102E   :    0;
 102F   :    0;
 1030   :    0;
 1031   :    0;
 1032   :    0;
 1033   :    0;
 1034   :    0;
 1035   :    0;
 1036   :    0;
 1037   :    0;
 1038   :    0;
 1039   :    0;
 103A   :    0;
 103B   :    0;
 103C   :    0;
 103D   :    0;
 103E   :    0;
 103F   :    0;
 1040   :    0;
 1041   :    0;
 1042   :    0;
 1043   :    0;
 1044   :    0;
 1045   :    0;
 1046   :    0;
 1047   :    0;
 1048   :    0;
 1049   :    0;
 104A   :    0;
 104B   :    0;
 104C   :    0;
 104D   :    0;
 104E   :    0;
 104F   :    0;
 1050   :    0;
 1051   :    0;
 1052   :    0;
 1053   :    0;
 1054   :    0;
 1055   :    0;
 1056   :    0;
 1057   :    0;
 1058   :    0;
 1059   :    0;
 105A   :    0;
 105B   :    0;
 105C   :    0;
 105D   :    0;
 105E   :    0;
 105F   :    0;
 1060   :    0;
 1061   :    0;
 1062   :    0;
 1063   :    0;
 1064   :    0;
 1065   :    0;
 1066   :    0;
 1067   :    0;
 1068   :    0;
 1069   :    0;
 106A   :    0;
 106B   :    0;
 106C   :    0;
 106D   :    0;
 106E   :    0;
 106F   :    0;
 1070   :    0;
 1071   :    0;
 1072   :    0;
 1073   :    0;
 1074   :    0;
 1075   :    0;
 1076   :    0;
 1077   :    0;
 1078   :    0;
 1079   :    0;
 107A   :    0;
 107B   :    0;
 107C   :    0;
 107D   :    0;
 107E   :    0;
 107F   :    0;
 1080   :    0;
 1081   :    0;
 1082   :    0;
 1083   :    0;
 1084   :    0;
 1085   :    0;
 1086   :    0;
 1087   :    0;
 1088   :    0;
 1089   :    0;
 108A   :    0;
 108B   :    0;
 108C   :    0;
 108D   :    0;
 108E   :    0;
 108F   :    0;
 1090   :    0;
 1091   :    0;
 1092   :    0;
 1093   :    0;
 1094   :    0;
 1095   :    0;
 1096   :    0;
 1097   :    0;
 1098   :    0;
 1099   :    0;
 109A   :    0;
 109B   :    0;
 109C   :    0;
 109D   :    0;
 109E   :    0;
 109F   :    0;
 10A0   :    0;
 10A1   :    0;
 10A2   :    0;
 10A3   :    0;
 10A4   :    0;
 10A5   :    0;
 10A6   :    0;
 10A7   :    0;
 10A8   :    0;
 10A9   :    0;
 10AA   :    0;
 10AB   :    0;
 10AC   :    0;
 10AD   :    0;
 10AE   :    0;
 10AF   :    0;
 10B0   :    0;
 10B1   :    0;
 10B2   :    0;
 10B3   :    0;
 10B4   :    0;
 10B5   :    0;
 10B6   :    0;
 10B7   :    0;
 10B8   :    0;
 10B9   :    0;
 10BA   :    0;
 10BB   :    0;
 10BC   :    0;
 10BD   :    0;
 10BE   :    0;
 10BF   :    0;
 10C0   :    0;
 10C1   :    0;
 10C2   :    0;
 10C3   :    0;
 10C4   :    0;
 10C5   :    0;
 10C6   :    0;
 10C7   :    0;
 10C8   :    0;
 10C9   :    0;
 10CA   :    0;
 10CB   :    0;
 10CC   :    0;
 10CD   :    0;
 10CE   :    0;
 10CF   :    0;
 10D0   :    0;
 10D1   :    0;
 10D2   :    0;
 10D3   :    0;
 10D4   :    0;
 10D5   :    0;
 10D6   :    0;
 10D7   :    0;
 10D8   :    0;
 10D9   :    0;
 10DA   :    0;
 10DB   :    0;
 10DC   :    0;
 10DD   :    0;
 10DE   :    0;
 10DF   :    0;
 10E0   :    0;
 10E1   :    0;
 10E2   :    0;
 10E3   :    0;
 10E4   :    0;
 10E5   :    0;
 10E6   :    0;
 10E7   :    0;
 10E8   :    0;
 10E9   :    0;
 10EA   :    0;
 10EB   :    0;
 10EC   :    0;
 10ED   :    0;
 10EE   :    0;
 10EF   :    0;
 10F0   :    0;
 10F1   :    0;
 10F2   :    0;
 10F3   :    0;
 10F4   :    0;
 10F5   :    0;
 10F6   :    0;
 10F7   :    0;
 10F8   :    0;
 10F9   :    0;
 10FA   :    0;
 10FB   :    0;
 10FC   :    0;
 10FD   :    0;
 10FE   :    0;
 10FF   :    0;
 1100   :    0;
 1101   :    0;
 1102   :    0;
 1103   :    0;
 1104   :    0;
 1105   :    0;
 1106   :    0;
 1107   :    0;
 1108   :    0;
 1109   :    0;
 110A   :    0;
 110B   :    0;
 110C   :    0;
 110D   :    0;
 110E   :    0;
 110F   :    0;
 1110   :    0;
 1111   :    0;
 1112   :    0;
 1113   :    0;
 1114   :    0;
 1115   :    0;
 1116   :    0;
 1117   :    0;
 1118   :    0;
 1119   :    0;
 111A   :    0;
 111B   :    0;
 111C   :    0;
 111D   :    0;
 111E   :    0;
 111F   :    0;
 1120   :    0;
 1121   :    0;
 1122   :    0;
 1123   :    0;
 1124   :    0;
 1125   :    0;
 1126   :    0;
 1127   :    0;
 1128   :    0;
 1129   :    0;
 112A   :    0;
 112B   :    0;
 112C   :    0;
 112D   :    0;
 112E   :    0;
 112F   :    0;
 1130   :    0;
 1131   :    0;
 1132   :    0;
 1133   :    0;
 1134   :    0;
 1135   :    0;
 1136   :    0;
 1137   :    0;
 1138   :    0;
 1139   :    0;
 113A   :    0;
 113B   :    0;
 113C   :    0;
 113D   :    0;
 113E   :    0;
 113F   :    0;
 1140   :    0;
 1141   :    0;
 1142   :    0;
 1143   :    0;
 1144   :    0;
 1145   :    0;
 1146   :    0;
 1147   :    0;
 1148   :    0;
 1149   :    0;
 114A   :    0;
 114B   :    0;
 114C   :    0;
 114D   :    0;
 114E   :    0;
 114F   :    0;
 1150   :    0;
 1151   :    0;
 1152   :    0;
 1153   :    0;
 1154   :    0;
 1155   :    0;
 1156   :    0;
 1157   :    0;
 1158   :    0;
 1159   :    0;
 115A   :    0;
 115B   :    0;
 115C   :    0;
 115D   :    0;
 115E   :    0;
 115F   :    0;
 1160   :    0;
 1161   :    0;
 1162   :    0;
 1163   :    0;
 1164   :    0;
 1165   :    0;
 1166   :    0;
 1167   :    0;
 1168   :    0;
 1169   :    0;
 116A   :    0;
 116B   :    0;
 116C   :    0;
 116D   :    0;
 116E   :    0;
 116F   :    0;
 1170   :    0;
 1171   :    0;
 1172   :    0;
 1173   :    0;
 1174   :    0;
 1175   :    0;
 1176   :    0;
 1177   :    0;
 1178   :    0;
 1179   :    0;
 117A   :    0;
 117B   :    0;
 117C   :    0;
 117D   :    0;
 117E   :    0;
 117F   :    0;
 1180   :    0;
 1181   :    0;
 1182   :    0;
 1183   :    0;
 1184   :    0;
 1185   :    0;
 1186   :    0;
 1187   :    0;
 1188   :    0;
 1189   :    0;
 118A   :    0;
 118B   :    0;
 118C   :    0;
 118D   :    0;
 118E   :    0;
 118F   :    0;
 1190   :    0;
 1191   :    0;
 1192   :    0;
 1193   :    0;
 1194   :    0;
 1195   :    0;
 1196   :    0;
 1197   :    0;
 1198   :    0;
 1199   :    0;
 119A   :    0;
 119B   :    0;
 119C   :    0;
 119D   :    0;
 119E   :    0;
 119F   :    0;
 11A0   :    0;
 11A1   :    0;
 11A2   :    0;
 11A3   :    0;
 11A4   :    0;
 11A5   :    0;
 11A6   :    0;
 11A7   :    0;
 11A8   :    0;
 11A9   :    0;
 11AA   :    0;
 11AB   :    0;
 11AC   :    0;
 11AD   :    0;
 11AE   :    0;
 11AF   :    0;
 11B0   :    0;
 11B1   :    0;
 11B2   :    0;
 11B3   :    0;
 11B4   :    0;
 11B5   :    0;
 11B6   :    0;
 11B7   :    0;
 11B8   :    0;
 11B9   :    0;
 11BA   :    0;
 11BB   :    0;
 11BC   :    0;
 11BD   :    0;
 11BE   :    0;
 11BF   :    0;
 11C0   :    0;
 11C1   :    0;
 11C2   :    0;
 11C3   :    0;
 11C4   :    0;
 11C5   :    0;
 11C6   :    0;
 11C7   :    0;
 11C8   :    0;
 11C9   :    0;
 11CA   :    0;
 11CB   :    0;
 11CC   :    0;
 11CD   :    0;
 11CE   :    0;
 11CF   :    0;
 11D0   :    0;
 11D1   :    0;
 11D2   :    0;
 11D3   :    0;
 11D4   :    0;
 11D5   :    0;
 11D6   :    0;
 11D7   :    0;
 11D8   :    0;
 11D9   :    0;
 11DA   :    0;
 11DB   :    0;
 11DC   :    0;
 11DD   :    0;
 11DE   :    0;
 11DF   :    0;
 11E0   :    0;
 11E1   :    0;
 11E2   :    0;
 11E3   :    0;
 11E4   :    0;
 11E5   :    0;
 11E6   :    0;
 11E7   :    0;
 11E8   :    0;
 11E9   :    0;
 11EA   :    0;
 11EB   :    0;
 11EC   :    0;
 11ED   :    0;
 11EE   :    0;
 11EF   :    0;
 11F0   :    0;
 11F1   :    0;
 11F2   :    0;
 11F3   :    0;
 11F4   :    0;
 11F5   :    0;
 11F6   :    0;
 11F7   :    0;
 11F8   :    0;
 11F9   :    0;
 11FA   :    0;
 11FB   :    0;
 11FC   :    0;
 11FD   :    0;
 11FE   :    0;
 11FF   :    0;
 1200   :    0;
 1201   :    0;
 1202   :    0;
 1203   :    0;
 1204   :    0;
 1205   :    0;
 1206   :    0;
 1207   :    0;
 1208   :    0;
 1209   :    0;
 120A   :    0;
 120B   :    0;
 120C   :    0;
 120D   :    0;
 120E   :    0;
 120F   :    0;
 1210   :    0;
 1211   :    0;
 1212   :    0;
 1213   :    0;
 1214   :    0;
 1215   :    0;
 1216   :    0;
 1217   :    0;
 1218   :    0;
 1219   :    0;
 121A   :    0;
 121B   :    0;
 121C   :    0;
 121D   :    0;
 121E   :    0;
 121F   :    0;
 1220   :    0;
 1221   :    0;
 1222   :    0;
 1223   :    0;
 1224   :    0;
 1225   :    0;
 1226   :    0;
 1227   :    0;
 1228   :    0;
 1229   :    0;
 122A   :    0;
 122B   :    0;
 122C   :    0;
 122D   :    0;
 122E   :    0;
 122F   :    0;
 1230   :    0;
 1231   :    0;
 1232   :    0;
 1233   :    0;
 1234   :    0;
 1235   :    0;
 1236   :    0;
 1237   :    0;
 1238   :    0;
 1239   :    0;
 123A   :    0;
 123B   :    0;
 123C   :    0;
 123D   :    0;
 123E   :    0;
 123F   :    0;
 1240   :    0;
 1241   :    0;
 1242   :    0;
 1243   :    0;
 1244   :    0;
 1245   :    0;
 1246   :    0;
 1247   :    0;
 1248   :    0;
 1249   :    0;
 124A   :    0;
 124B   :    0;
 124C   :    0;
 124D   :    0;
 124E   :    0;
 124F   :    0;
 1250   :    0;
 1251   :    0;
 1252   :    0;
 1253   :    0;
 1254   :    0;
 1255   :    0;
 1256   :    0;
 1257   :    0;
 1258   :    0;
 1259   :    0;
 125A   :    0;
 125B   :    0;
 125C   :    0;
 125D   :    0;
 125E   :    0;
 125F   :    0;
 1260   :    0;
 1261   :    0;
 1262   :    0;
 1263   :    0;
 1264   :    0;
 1265   :    0;
 1266   :    0;
 1267   :    0;
 1268   :    0;
 1269   :    0;
 126A   :    0;
 126B   :    0;
 126C   :    0;
 126D   :    0;
 126E   :    0;
 126F   :    0;
 1270   :    0;
 1271   :    0;
 1272   :    0;
 1273   :    0;
 1274   :    0;
 1275   :    0;
 1276   :    0;
 1277   :    0;
 1278   :    0;
 1279   :    0;
 127A   :    0;
 127B   :    0;
 127C   :    0;
 127D   :    0;
 127E   :    0;
 127F   :    0;
 1280   :    0;
 1281   :    0;
 1282   :    0;
 1283   :    0;
 1284   :    0;
 1285   :    0;
 1286   :    0;
 1287   :    0;
 1288   :    0;
 1289   :    0;
 128A   :    0;
 128B   :    0;
 128C   :    0;
 128D   :    0;
 128E   :    0;
 128F   :    0;
 1290   :    0;
 1291   :    0;
 1292   :    0;
 1293   :    0;
 1294   :    0;
 1295   :    0;
 1296   :    0;
 1297   :    0;
 1298   :    0;
 1299   :    0;
 129A   :    0;
 129B   :    0;
 129C   :    0;
 129D   :    0;
 129E   :    0;
 129F   :    0;
 12A0   :    0;
 12A1   :    0;
 12A2   :    0;
 12A3   :    0;
 12A4   :    0;
 12A5   :    0;
 12A6   :    0;
 12A7   :    0;
 12A8   :    0;
 12A9   :    0;
 12AA   :    0;
 12AB   :    0;
 12AC   :    0;
 12AD   :    0;
 12AE   :    0;
 12AF   :    0;
 12B0   :    0;
 12B1   :    0;
 12B2   :    0;
 12B3   :    0;
 12B4   :    0;
 12B5   :    0;
 12B6   :    0;
 12B7   :    0;
 12B8   :    0;
 12B9   :    0;
 12BA   :    0;
 12BB   :    0;
 12BC   :    0;
 12BD   :    0;
 12BE   :    0;
 12BF   :    0;
 12C0   :    0;
 12C1   :    0;
 12C2   :    0;
 12C3   :    0;
 12C4   :    0;
 12C5   :    0;
 12C6   :    0;
 12C7   :    0;
 12C8   :    0;
 12C9   :    0;
 12CA   :    0;
 12CB   :    0;
 12CC   :    0;
 12CD   :    0;
 12CE   :    0;
 12CF   :    0;
 12D0   :    0;
 12D1   :    0;
 12D2   :    0;
 12D3   :    0;
 12D4   :    0;
 12D5   :    0;
 12D6   :    0;
 12D7   :    0;
 12D8   :    0;
 12D9   :    0;
 12DA   :    0;
 12DB   :    0;
 12DC   :    0;
 12DD   :    0;
 12DE   :    0;
 12DF   :    0;
 12E0   :    0;
 12E1   :    0;
 12E2   :    0;
 12E3   :    0;
 12E4   :    0;
 12E5   :    0;
 12E6   :    0;
 12E7   :    0;
 12E8   :    0;
 12E9   :    0;
 12EA   :    0;
 12EB   :    0;
 12EC   :    0;
 12ED   :    0;
 12EE   :    0;
 12EF   :    0;
 12F0   :    0;
 12F1   :    0;
 12F2   :    0;
 12F3   :    0;
 12F4   :    0;
 12F5   :    0;
 12F6   :    0;
 12F7   :    0;
 12F8   :    0;
 12F9   :    0;
 12FA   :    0;
 12FB   :    0;
 12FC   :    0;
 12FD   :    0;
 12FE   :    0;
 12FF   :    0;
 1300   :    0;
 1301   :    0;
 1302   :    0;
 1303   :    0;
 1304   :    0;
 1305   :    0;
 1306   :    0;
 1307   :    0;
 1308   :    0;
 1309   :    0;
 130A   :    0;
 130B   :    0;
 130C   :    0;
 130D   :    0;
 130E   :    0;
 130F   :    0;
 1310   :    0;
 1311   :    0;
 1312   :    0;
 1313   :    0;
 1314   :    0;
 1315   :    0;
 1316   :    0;
 1317   :    0;
 1318   :    0;
 1319   :    0;
 131A   :    0;
 131B   :    0;
 131C   :    0;
 131D   :    0;
 131E   :    0;
 131F   :    0;
 1320   :    0;
 1321   :    0;
 1322   :    0;
 1323   :    0;
 1324   :    0;
 1325   :    0;
 1326   :    0;
 1327   :    0;
 1328   :    0;
 1329   :    0;
 132A   :    0;
 132B   :    0;
 132C   :    0;
 132D   :    0;
 132E   :    0;
 132F   :    0;
 1330   :    0;
 1331   :    0;
 1332   :    0;
 1333   :    0;
 1334   :    0;
 1335   :    0;
 1336   :    0;
 1337   :    0;
 1338   :    0;
 1339   :    0;
 133A   :    0;
 133B   :    0;
 133C   :    0;
 133D   :    0;
 133E   :    0;
 133F   :    0;
 1340   :    0;
 1341   :    0;
 1342   :    0;
 1343   :    0;
 1344   :    0;
 1345   :    0;
 1346   :    0;
 1347   :    0;
 1348   :    0;
 1349   :    0;
 134A   :    0;
 134B   :    0;
 134C   :    0;
[...]
 1B1F   :    0;
 1B20   :    0;
 1B21   :    0;
 1B22   :    0;
 1B23   :    0;
 1B24   :    0;
 1B25   :    0;
 1B26   :    0;
 1B27   :    0;
 1B28   :    0;
 1B29   :    0;
 1B2A   :    0;
 1B2B   :    0;
 1B2C   :    0;
 1B2D   :    0;
 1B2E   :    0;
 1B2F   :    0;
 1B30   :    0;
 1B31   :    0;
 1B32   :    0;
 1B33   :    0;
 1B34   :    0;
 1B35   :    0;
 1B36   :    0;
 1B37   :    0;
 1B38   :    0;
 1B39   :    0;
 1B3A   :    0;
 1B3B   :    0;
 1B3C   :    0;
 1B3D   :    0;
 1B3E   :    0;
 1B3F   :    0;
 1B40   :    0;
 1B41   :    0;
 1B42   :    0;
 1B43   :    0;
 1B44   :    0;
 1B45   :    0;
 1B46   :    0;
 1B47   :    0;
 1B48   :    0;
 1B49   :    0;
 1B4A   :    0;
 1B4B   :    0;
 1B4C   :    0;
 1B4D   :    0;
 1B4E   :    0;
 1B4F   :    0;
 1B50   :    0;
 1B51   :    0;
 1B52   :    0;
 1B53   :    0;
 1B54   :    0;
 1B55   :    0;
 1B56   :    0;
 1B57   :    0;
 1B58   :    0;
 1B59   :    0;
 1B5A   :    0;
 1B5B   :    0;
 1B5C   :    0;
 1B5D   :    0;
 1B5E   :    0;
 1B5F   :    0;
 1B60   :    0;
 1B61   :    0;
 1B62   :    0;
 1B63   :    0;
 1B64   :    0;
 1B65   :    0;
 1B66   :    0;
 1B67   :    0;
 1B68   :    0;
 1B69   :    0;
 1B6A   :    0;
 1B6B   :    0;
 1B6C   :    0;
 1B6D   :    0;
 1B6E   :    0;
 1B6F   :    0;
 1B70   :    0;
 1B71   :    0;
 1B72   :    0;
 1B73   :    0;
 1B74   :    0;
 1B75   :    0;
 1B76   :    0;
 1B77   :    0;
 1B78   :    0;
 1B79   :    0;
 1B7A   :    0;
 1B7B   :    0;
 1B7C   :    0;
 1B7D   :    0;
 1B7E   :    0;
 1B7F   :    0;
 1B80   :    0;
 1B81   :    0;
 1B82   :    0;
 1B83   :    0;
 1B84   :    0;
 1B85   :    0;
 1B86   :    0;
 1B87   :    0;
 1B88   :    0;
 1B89   :    0;
 1B8A   :    0;
 1B8B   :    0;
 1B8C   :    0;
 1B8D   :    0;
 1B8E   :    0;
 1B8F   :    0;
 1B90   :    0;
 1B91   :    0;
 1B92   :    0;
 1B93   :    0;
 1B94   :    0;
 1B95   :    0;
 1B96   :    0;
 1B97   :    0;
 1B98   :    0;
 1B99   :    0;
 1B9A   :    0;
 1B9B   :    0;
 1B9C   :    0;
 1B9D   :    0;
 1B9E   :    0;
 1B9F   :    0;
 1BA0   :    0;
 1BA1   :    0;
 1BA2   :    0;
 1BA3   :    0;
 1BA4   :    0;
 1BA5   :    0;
 1BA6   :    0;
 1BA7   :    0;
 1BA8   :    0;
 1BA9   :    0;
 1BAA   :    0;
 1BAB   :    0;
 1BAC   :    0;
 1BAD   :    0;
 1BAE   :    0;
 1BAF   :    0;
 1BB0   :    0;
 1BB1   :    0;
 1BB2   :    0;
 1BB3   :    0;
 1BB4   :    0;
 1BB5   :    0;
 1BB6   :    0;
 1BB7   :    0;
 1BB8   :    0;
 1BB9   :    0;
 1BBA   :    0;
 1BBB   :    0;
 1BBC   :    0;
 1BBD   :    0;
 1BBE   :    0;
 1BBF   :    0;
 1BC0   :    0;
 1BC1   :    0;
 1BC2   :    0;
 1BC3   :    0;
 1BC4   :    0;
 1BC5   :    0;
 1BC6   :    0;
 1BC7   :    0;
 1BC8   :    0;
 1BC9   :    0;
 1BCA   :    0;
 1BCB   :    0;
 1BCC   :    0;
 1BCD   :    0;
 1BCE   :    0;
 1BCF   :    0;
 1BD0   :    0;
 1BD1   :    0;
 1BD2   :    0;
 1BD3   :    0;
 1BD4   :    0;
 1BD5   :    0;
 1BD6   :    0;
 1BD7   :    0;
 1BD8   :    0;
 1BD9   :    0;
 1BDA   :    0;
 1BDB   :    0;
 1BDC   :    0;
 1BDD   :    0;
 1BDE   :    0;
 1BDF   :    0;
 1BE0   :    0;
 1BE1   :    0;
 1BE2   :    0;
 1BE3   :    0;
 1BE4   :    0;
 1BE5   :    0;
 1BE6   :    0;
 1BE7   :    0;
 1BE8   :    0;
 1BE9   :    0;
 1BEA   :    0;
 1BEB   :    0;
 1BEC   :    0;
 1BED   :    0;
 1BEE   :    0;
 1BEF   :    0;
 1BF0   :    0;
 1BF1   :    0;
 1BF2   :    0;
 1BF3   :    0;
 1BF4   :    0;
 1BF5   :    0;
 1BF6   :    0;
 1BF7   :    0;
 1BF8   :    0;
 1BF9   :    0;
 1BFA   :    0;
 1BFB   :    0;
 1BFC   :    0;
 1BFD   :    0;
 1BFE   :    0;
 1BFF   :    0;
 1C00   :    0;
 1C01   :    0;
 1C02   :    0;
 1C03   :    0;
 1C04   :    0;
 1C05   :    0;
 1C06   :    0;
 1C07   :    0;
 1C08   :    0;
 1C09   :    0;
 1C0A   :    0;
 1C0B   :    0;
 1C0C   :    0;
 1C0D   :    0;
 1C0E   :    0;
 1C0F   :    0;
 1C10   :    0;
 1C11   :    0;
 1C12   :    0;
 1C13   :    0;
 1C14   :    0;
 1C15   :    0;
 1C16   :    0;
 1C17   :    0;
 1C18   :    0;
 1C19   :    0;
 1C1A   :    0;
 1C1B   :    0;
 1C1C   :    0;
 1C1D   :    0;
 1C1E   :    0;
 1C1F   :    0;
 1C20   :    0;
 1C21   :    0;
 1C22   :    0;
 1C23   :    0;
 1C24   :    0;
 1C25   :    0;
 1C26   :    0;
 1C27   :    0;
 1C28   :    0;
 1C29   :    0;
 1C2A   :    0;
 1C2B   :    0;
 1C2C   :    0;
 1C2D   :    0;
 1C2E   :    0;
 1C2F   :    0;
 1C30   :    0;
 1C31   :    0;
 1C32   :    0;
 1C33   :    0;
 1C34   :    0;
 1C35   :    0;
 1C36   :    0;
 1C37   :    0;
 1C38   :    0;
 1C39   :    0;
 1C3A   :    0;
 1C3B   :    0;
 1C3C   :    0;
 1C3D   :    0;
 1C3E   :    0;
 1C3F   :    0;
 1C40   :    0;
 1C41   :    0;
 1C42   :    0;
 1C43   :    0;
 1C44   :    0;
 1C45   :    0;
 1C46   :    0;
 1C47   :    0;
 1C48   :    0;
 1C49   :    0;
 1C4A   :    0;
 1C4B   :    0;
 1C4C   :    0;
 1C4D   :    0;
 1C4E   :    0;
 1C4F   :    0;
 1C50   :    0;
 1C51   :    0;
 1C52   :    0;
 1C53   :    0;
 1C54   :    0;
 1C55   :    0;
 1C56   :    0;
 1C57   :    0;
 1C58   :    0;
 1C59   :    0;
 1C5A   :    0;
 1C5B   :    0;
 1C5C   :    0;
 1C5D   :    0;
 1C5E   :    0;
 1C5F   :    0;
 1C60   :    0;
 1C61   :    0;
 1C62   :    0;
 1C63   :    0;
 1C64   :    0;
 1C65   :    0;
 1C66   :    0;
 1C67   :    0;
 1C68   :    0;
 1C69   :    0;
 1C6A   :    0;
 1C6B   :    0;
 1C6C   :    0;
 1C6D   :    0;
 1C6E   :    0;
 1C6F   :    0;
 1C70   :    0;
 1C71   :    0;
 1C72   :    0;
 1C73   :    0;
 1C74   :    0;
 1C75   :    0;
 1C76   :    0;
 1C77   :    0;
 1C78   :    0;
 1C79   :    0;
 1C7A   :    0;
 1C7B   :    0;
 1C7C   :    0;
 1C7D   :    0;
 1C7E   :    0;
 1C7F   :    0;
 1C80   :    0;
 1C81   :    0;
 1C82   :    0;
 1C83   :    0;
 1C84   :    0;
 1C85   :    0;
 1C86   :    0;
 1C87   :    0;
 1C88   :    0;
 1C89   :    0;
 1C8A   :    0;
 1C8B   :    0;
 1C8C   :    0;
 1C8D   :    0;
 1C8E   :    0;
 1C8F   :    0;
 1C90   :    0;
 1C91   :    0;
 1C92   :    0;
 1C93   :    0;
 1C94   :    0;
 1C95   :    0;
 1C96   :    0;
 1C97   :    0;
 1C98   :    0;
 1C99   :    0;
 1C9A   :    0;
 1C9B   :    0;
 1C9C   :    0;
 1C9D   :    0;
 1C9E   :    0;
 1C9F   :    0;
 1CA0   :    0;
 1CA1   :    0;
 1CA2   :    0;
 1CA3   :    0;
 1CA4   :    0;
 1CA5   :    0;
 1CA6   :    0;
 1CA7   :    0;
 1CA8   :    0;
 1CA9   :    0;
 1CAA   :    0;
 1CAB   :    0;
 1CAC   :    0;
 1CAD   :    0;
 1CAE   :    0;
 1CAF   :    0;
 1CB0   :    0;
 1CB1   :    0;
 1CB2   :    0;
 1CB3   :    0;
 1CB4   :    0;
 1CB5   :    0;
 1CB6   :    0;
 1CB7   :    0;
 1CB8   :    0;
 1CB9   :    0;
 1CBA   :    0;
 1CBB   :    0;
 1CBC   :    0;
 1CBD   :    0;
 1CBE   :    0;
 1CBF   :    0;
 1CC0   :    0;
 1CC1   :    0;
 1CC2   :    0;
 1CC3   :    0;
 1CC4   :    0;
 1CC5   :    0;
 1CC6   :    0;
 1CC7   :    0;
 1CC8   :    0;
 1CC9   :    0;
 1CCA   :    0;
 1CCB   :    0;
 1CCC   :    0;
 1CCD   :    0;
 1CCE   :    0;
 1CCF   :    0;
 1CD0   :    0;
 1CD1   :    0;
 1CD2   :    0;
 1CD3   :    0;
 1CD4   :    0;
 1CD5   :    0;
 1CD6   :    0;
 1CD7   :    0;
 1CD8   :    0;
 1CD9   :    0;
 1CDA   :    0;
 1CDB   :    0;
 1CDC   :    0;
 1CDD   :    0;
 1CDE   :    0;
 1CDF   :    0;
 1CE0   :    0;
 1CE1   :    0;
 1CE2   :    0;
 1CE3   :    0;
 1CE4   :    0;
 1CE5   :    0;
 1CE6   :    0;
 1CE7   :    0;
 1CE8   :    0;
 1CE9   :    0;
 1CEA   :    0;
 1CEB   :    0;
 1CEC   :    0;
 1CED   :    0;
 1CEE   :    0;
 1CEF   :    0;
 1CF0   :    0;
 1CF1   :    0;
 1CF2   :    0;
 1CF3   :    0;
 1CF4   :    0;
 1CF5   :    0;
 1CF6   :    0;
 1CF7   :    0;
 1CF8   :    0;
 1CF9   :    0;
 1CFA   :    0;
 1CFB   :    0;
 1CFC   :    0;
 1CFD   :    0;
 1CFE   :    0;
 1CFF   :    0;
 1D00   :    0;
 1D01   :    0;
 1D02   :    0;
 1D03   :    0;
 1D04   :    0;
 1D05   :    0;
 1D06   :    0;
 1D07   :    0;
 1D08   :    0;
 1D09   :    0;
 1D0A   :    0;
 1D0B   :    0;
 1D0C   :    0;
 1D0D   :    0;
 1D0E   :    0;
 1D0F   :    0;
 1D10   :    0;
 1D11   :    0;
 1D12   :    0;
 1D13   :    0;
 1D14   :    0;
 1D15   :    0;
 1D16   :    0;
 1D17   :    0;
 1D18   :    0;
 1D19   :    0;
 1D1A   :    0;
 1D1B   :    0;
 1D1C   :    0;
 1D1D   :    0;
 1D1E   :    0;
 1D1F   :    0;
 1D20   :    0;
 1D21   :    0;
 1D22   :    0;
 1D23   :    0;
 1D24   :    0;
 1D25   :    0;
 1D26   :    0;
 1D27   :    0;
 1D28   :    0;
 1D29   :    0;
 1D2A   :    0;
 1D2B   :    0;
 1D2C   :    0;
 1D2D   :    0;
 1D2E   :    0;
 1D2F   :    0;
 1D30   :    0;
 1D31   :    0;
 1D32   :    0;
 1D33   :    0;
 1D34   :    0;
 1D35   :    0;
 1D36   :    0;
 1D37   :    0;
 1D38   :    0;
 1D39   :    0;
 1D3A   :    0;
 1D3B   :    0;
 1D3C   :    0;
 1D3D   :    0;
 1D3E   :    0;
 1D3F   :    0;
 1D40   :    0;
 1D41   :    0;
 1D42   :    0;
 1D43   :    0;
 1D44   :    0;
 1D45   :    0;
 1D46   :    0;
 1D47   :    0;
 1D48   :    0;
 1D49   :    0;
 1D4A   :    0;
 1D4B   :    0;
 1D4C   :    0;
 1D4D   :    0;
 1D4E   :    0;
 1D4F   :    0;
 1D50   :    0;
 1D51   :    0;
 1D52   :    0;
 1D53   :    0;
 1D54   :    0;
 1D55   :    0;
 1D56   :    0;
 1D57   :    0;
 1D58   :    0;
 1D59   :    0;
 1D5A   :    0;
 1D5B   :    0;
 1D5C   :    0;
 1D5D   :    0;
 1D5E   :    0;
 1D5F   :    0;
 1D60   :    0;
 1D61   :    0;
 1D62   :    0;
 1D63   :    0;
 1D64   :    0;
 1D65   :    0;
 1D66   :    0;
 1D67   :    0;
 1D68   :    0;
 1D69   :    0;
 1D6A   :    0;
 1D6B   :    0;
 1D6C   :    0;
 1D6D   :    0;
 1D6E   :    0;
 1D6F   :    0;
 1D70   :    0;
 1D71   :    0;
 1D72   :    0;
 1D73   :    0;
 1D74   :    0;
 1D75   :    0;
 1D76   :    0;
 1D77   :    0;
 1D78   :    0;
 1D79   :    0;
 1D7A   :    0;
 1D7B   :    0;
 1D7C   :    0;
 1D7D   :    0;
 1D7E   :    0;
 1D7F   :    0;
 1D80   :    0;
 1D81   :    0;
 1D82   :    0;
 1D83   :    0;
 1D84   :    0;
 1D85   :    0;
 1D86   :    0;
 1D87   :    0;
 1D88   :    0;
 1D89   :    0;
 1D8A   :    0;
 1D8B   :    0;
 1D8C   :    0;
 1D8D   :    0;
 1D8E   :    0;
 1D8F   :    0;
 1D90   :    0;
 1D91   :    0;
 1D92   :    0;
 1D93   :    0;
 1D94   :    0;
 1D95   :    0;
 1D96   :    0;
 1D97   :    0;
 1D98   :    0;
 1D99   :    0;
 1D9A   :    0;
 1D9B   :    0;
 1D9C   :    0;
 1D9D   :    0;
 1D9E   :    0;
 1D9F   :    0;
 1DA0   :    0;
 1DA1   :    0;
 1DA2   :    0;
 1DA3   :    0;
 1DA4   :    0;
 1DA5   :    0;
 1DA6   :    0;
 1DA7   :    0;
 1DA8   :    0;
 1DA9   :    0;
 1DAA   :    0;
 1DAB   :    0;
 1DAC   :    0;
 1DAD   :    0;
 1DAE   :    0;
 1DAF   :    0;
 1DB0   :    0;
 1DB1   :    0;
 1DB2   :    0;
 1DB3   :    0;
 1DB4   :    0;
 1DB5   :    0;
 1DB6   :    0;
 1DB7   :    0;
 1DB8   :    0;
 1DB9   :    0;
 1DBA   :    0;
 1DBB   :    0;
 1DBC   :    0;
 1DBD   :    0;
 1DBE   :    0;
 1DBF   :    0;
 1DC0   :    0;
 1DC1   :    0;
 1DC2   :    0;
 1DC3   :    0;
 1DC4   :    0;
 1DC5   :    0;
 1DC6   :    0;
 1DC7   :    0;
 1DC8   :    0;
 1DC9   :    0;
 1DCA   :    0;
 1DCB   :    0;
 1DCC   :    0;
 1DCD   :    0;
 1DCE   :    0;
 1DCF   :    0;
 1DD0   :    0;
 1DD1   :    0;
 1DD2   :    0;
 1DD3   :    0;
 1DD4   :    0;
 1DD5   :    0;
 1DD6   :    0;
 1DD7   :    0;
 1DD8   :    0;
 1DD9   :    0;
 1DDA   :    0;
 1DDB   :    0;
 1DDC   :    0;
 1DDD   :    0;
 1DDE   :    0;
 1DDF   :    0;
 1DE0   :    0;
 1DE1   :    0;
 1DE2   :    0;
 1DE3   :    0;
 1DE4   :    0;
 1DE5   :    0;
 1DE6   :    0;
 1DE7   :    0;
 1DE8   :    0;
 1DE9   :    0;
 1DEA   :    0;
 1DEB   :    0;
 1DEC   :    0;
 1DED   :    0;
 1DEE   :    0;
 1DEF   :    0;
 1DF0   :    0;
 1DF1   :    0;
 1DF2   :    0;
 1DF3   :    0;
 1DF4   :    0;
 1DF5   :    0;
 1DF6   :    0;
 1DF7   :    0;
 1DF8   :    0;
 1DF9   :    0;
 1DFA   :    0;
 1DFB   :    0;
 1DFC   :    0;
 1DFD   :    0;
 1DFE   :    0;
 1DFF   :    0;
 1E00   :    0;
 1E01   :    0;
 1E02   :    0;
 1E03   :    0;
 1E04   :    0;
 1E05   :    0;
 1E06   :    0;
 1E07   :    0;
 1E08   :    0;
 1E09   :    0;
 1E0A   :    0;
 1E0B   :    0;
 1E0C   :    0;
 1E0D   :    0;
 1E0E   :    0;
 1E0F   :    0;
 1E10   :    0;
 1E11   :    0;
 1E12   :    0;
 1E13   :    0;
 1E14   :    0;
 1E15   :    0;
 1E16   :    0;
 1E17   :    0;
 1E18   :    0;
 1E19   :    0;
 1E1A   :    0;
 1E1B   :    0;
 1E1C   :    0;
 1E1D   :    0;
 1E1E   :    0;
 1E1F   :    0;
 1E20   :    0;
 1E21   :    0;
 1E22   :    0;
 1E23   :    0;
 1E24   :    0;
 1E25   :    0;
 1E26   :    0;
 1E27   :    0;
 1E28   :    0;
 1E29   :    0;
 1E2A   :    0;
 1E2B   :    0;
 1E2C   :    0;
 1E2D   :    0;
 1E2E   :    0;
 1E2F   :    0;
 1E30   :    0;
 1E31   :    0;
 1E32   :    0;
 1E33   :    0;
 1E34   :    0;
 1E35   :    0;
 1E36   :    0;
 1E37   :    0;
 1E38   :    0;
 1E39   :    0;
 1E3A   :    0;
 1E3B   :    0;
 1E3C   :    0;
 1E3D   :    0;
 1E3E   :    0;
 1E3F   :    0;
 1E40   :    0;
 1E41   :    0;
 1E42   :    0;
 1E43   :    0;
 1E44   :    0;
 1E45   :    0;
 1E46   :    0;
 1E47   :    0;
 1E48   :    0;
 1E49   :    0;
 1E4A   :    0;
 1E4B   :    0;
 1E4C   :    0;
 1E4D   :    0;
 1E4E   :    0;
 1E4F   :    0;
 1E50   :    0;
 1E51   :    0;
 1E52   :    0;
 1E53   :    0;
 1E54   :    0;
 1E55   :    0;
 1E56   :    0;
 1E57   :    0;
 1E58   :    0;
 1E59   :    0;
 1E5A   :    0;
 1E5B   :    0;
 1E5C   :    0;
 1E5D   :    0;
 1E5E   :    0;
 1E5F   :    0;
 1E60   :    0;
 1E61   :    0;
 1E62   :    0;
 1E63   :    0;
 1E64   :    0;
 1E65   :    0;
 1E66   :    0;
 1E67   :    0;
 1E68   :    0;
 1E69   :    0;
 1E6A   :    0;
 1E6B   :    0;
 1E6C   :    0;
 1E6D   :    0;
 1E6E   :    0;
 1E6F   :    0;
 1E70   :    0;
 1E71   :    0;
 1E72   :    0;
 1E73   :    0;
 1E74   :    0;
 1E75   :    0;
 1E76   :    0;
 1E77   :    0;
 1E78   :    0;
 1E79   :    0;
 1E7A   :    0;
 1E7B   :    0;
 1E7C   :    0;
 1E7D   :    0;
 1E7E   :    0;
 1E7F   :    0;
 1E80   :    0;
 1E81   :    0;
 1E82   :    0;
 1E83   :    0;
 1E84   :    0;
 1E85   :    0;
 1E86   :    0;
 1E87   :    0;
 1E88   :    0;
 1E89   :    0;
 1E8A   :    0;
 1E8B   :    0;
 1E8C   :    0;
 1E8D   :    0;
 1E8E   :    0;
 1E8F   :    0;
 1E90   :    0;
 1E91   :    0;
 1E92   :    0;
 1E93   :    0;
 1E94   :    0;
 1E95   :    0;
 1E96   :    0;
 1E97   :    0;
 1E98   :    0;
 1E99   :    0;
 1E9A   :    0;
 1E9B   :    0;
 1E9C   :    0;
 1E9D   :    0;
 1E9E   :    0;
 1E9F   :    0;
 1EA0   :    0;
 1EA1   :    0;
 1EA2   :    0;
 1EA3   :    0;
 1EA4   :    0;
 1EA5   :    0;
 1EA6   :    0;
 1EA7   :    0;
 1EA8   :    0;
 1EA9   :    0;
 1EAA   :    0;
 1EAB   :    0;
 1EAC   :    0;
 1EAD   :    0;
 1EAE   :    0;
 1EAF   :    0;
 1EB0   :    0;
 1EB1   :    0;
 1EB2   :    0;
 1EB3   :    0;
 1EB4   :    0;
 1EB5   :    0;
 1EB6   :    0;
 1EB7   :    0;
 1EB8   :    0;
 1EB9   :    0;
 1EBA   :    0;
 1EBB   :    0;
 1EBC   :    0;
 1EBD   :    0;
 1EBE   :    0;
 1EBF   :    0;
 1EC0   :    0;
 1EC1   :    0;
 1EC2   :    0;
 1EC3   :    0;
 1EC4   :    0;
 1EC5   :    0;
 1EC6   :    0;
 1EC7   :    0;
 1EC8   :    0;
 1EC9   :    0;
 1ECA   :    0;
 1ECB   :    0;
 1ECC   :    0;
 1ECD   :    0;
 1ECE   :    0;
 1ECF   :    0;
 1ED0   :    0;
 1ED1   :    0;
 1ED2   :    0;
 1ED3   :    0;
 1ED4   :    0;
 1ED5   :    0;
 1ED6   :    0;
 1ED7   :    0;
 1ED8   :    0;
 1ED9   :    0;
 1EDA   :    0;
 1EDB   :    0;
 1EDC   :    0;
 1EDD   :    0;
 1EDE   :    0;
 1EDF   :    0;
 1EE0   :    0;
 1EE1   :    0;
 1EE2   :    0;
 1EE3   :    0;
 1EE4   :    0;
 1EE5   :    0;
 1EE6   :    0;
 1EE7   :    0;
 1EE8   :    0;
 1EE9   :    0;
 1EEA   :    0;
 1EEB   :    0;
 1EEC   :    0;
 1EED   :    0;
 1EEE   :    0;
 1EEF   :    0;
 1EF0   :    0;
 1EF1   :    0;
 1EF2   :    0;
 1EF3   :    0;
 1EF4   :    0;
 1EF5   :    0;
 1EF6   :    0;
 1EF7   :    0;
 1EF8   :    0;
 1EF9   :    0;
 1EFA   :    0;
 1EFB   :    0;
 1EFC   :    0;
 1EFD   :    0;
 1EFE   :    0;
 1EFF   :    0;
 1F00   :    0;
 1F01   :    0;
 1F02   :    0;
 1F03   :    0;
 1F04   :    0;
 1F05   :    0;
 1F06   :    0;
 1F07   :    0;
 1F08   :    0;
 1F09   :    0;
 1F0A   :    0;
 1F0B   :    0;
 1F0C   :    0;
 1F0D   :    0;
 1F0E   :    0;
 1F0F   :    0;
 1F10   :    0;
 1F11   :    0;
 1F12   :    0;
 1F13   :    0;
 1F14   :    0;
 1F15   :    0;
 1F16   :    0;
 1F17   :    0;
 1F18   :    0;
 1F19   :    0;
 1F1A   :    0;
 1F1B   :    0;
 1F1C   :    0;
 1F1D   :    0;
 1F1E   :    0;
 1F1F   :    0;
 1F20   :    0;
 1F21   :    0;
 1F22   :    0;
 1F23   :    0;
 1F24   :    0;
 1F25   :    0;
 1F26   :    0;
 1F27   :    0;
 1F28   :    0;
 1F29   :    0;
 1F2A   :    0;
 1F2B   :    0;
 1F2C   :    0;
 1F2D   :    0;
 1F2E   :    0;
 1F2F   :    0;
 1F30   :    0;
 1F31   :    0;
 1F32   :    0;
 1F33   :    0;
 1F34   :    0;
 1F35   :    0;
 1F36   :    0;
 1F37   :    0;
 1F38   :    0;
 1F39   :    0;
 1F3A   :    0;
 1F3B   :    0;
 1F3C   :    0;
 1F3D   :    0;
 1F3E   :    0;
 1F3F   :    0;
 1F40   :    0;
 1F41   :    0;
 1F42   :    0;
 1F43   :    0;
 1F44   :    0;
 1F45   :    0;
 1F46   :    0;
 1F47   :    0;
 1F48   :    0;
 1F49   :    0;
 1F4A   :    0;
 1F4B   :    0;
 1F4C   :    0;
 1F4D   :    0;
 1F4E   :    0;
 1F4F   :    0;
 1F50   :    0;
 1F51   :    0;
 1F52   :    0;
 1F53   :    0;
 1F54   :    0;
 1F55   :    0;
 1F56   :    0;
 1F57   :    0;
 1F58   :    0;
 1F59   :    0;
 1F5A   :    0;
 1F5B   :    0;
 1F5C   :    0;
 1F5D   :    0;
 1F5E   :    0;
 1F5F   :    0;
 1F60   :    0;
 1F61   :    0;
 1F62   :    0;
 1F63   :    0;
 1F64   :    0;
 1F65   :    0;
 1F66   :    0;
 1F67   :    0;
 1F68   :    0;
 1F69   :    0;
 1F6A   :    0;
 1F6B   :    0;
 1F6C   :    0;
 1F6D   :    0;
 1F6E   :    0;
 1F6F   :    0;
 1F70   :    0;
 1F71   :    0;
 1F72   :    0;
 1F73   :    0;
 1F74   :    0;
 1F75   :    0;
 1F76   :    0;
 1F77   :    0;
 1F78   :    0;
 1F79   :    0;
 1F7A   :    0;
 1F7B   :    0;
 1F7C   :    0;
 1F7D   :    0;
 1F7E   :    0;
 1F7F   :    0;
 1F80   :    0;
 1F81   :    0;
 1F82   :    0;
 1F83   :    0;
 1F84   :    0;
 1F85   :    0;
 1F86   :    0;
 1F87   :    0;
 1F88   :    0;
 1F89   :    0;
 1F8A   :    0;
 1F8B   :    0;
 1F8C   :    0;
 1F8D   :    0;
 1F8E   :    0;
 1F8F   :    0;
 1F90   :    0;
 1F91   :    0;
 1F92   :    0;
 1F93   :    0;
 1F94   :    0;
 1F95   :    0;
 1F96   :    0;
 1F97   :    0;
 1F98   :    0;
 1F99   :    0;
 1F9A   :    0;
 1F9B   :    0;
 1F9C   :    0;
 1F9D   :    0;
 1F9E   :    0;
 1F9F   :    0;
 1FA0   :    0;
 1FA1   :    0;
 1FA2   :    0;
 1FA3   :    0;
 1FA4   :    0;
 1FA5   :    0;
 1FA6   :    0;
 1FA7   :    0;
 1FA8   :    0;
 1FA9   :    0;
 1FAA   :    0;
 1FAB   :    0;
 1FAC   :    0;
 1FAD   :    0;
 1FAE   :    0;
 1FAF   :    0;
 1FB0   :    0;
 1FB1   :    0;
 1FB2   :    0;
 1FB3   :    0;
 1FB4   :    0;
 1FB5   :    0;
 1FB6   :    0;
 1FB7   :    0;
 1FB8   :    0;
 1FB9   :    0;
 1FBA   :    0;
 1FBB   :    0;
 1FBC   :    0;
 1FBD   :    0;
 1FBE   :    0;
 1FBF   :    0;
 1FC0   :    0;
 1FC1   :    0;
 1FC2   :    0;
 1FC3   :    0;
 1FC4   :    0;
 1FC5   :    0;
 1FC6   :    0;
 1FC7   :    0;
 1FC8   :    0;
 1FC9   :    0;
 1FCA   :    0;
 1FCB   :    0;
 1FCC   :    0;
 1FCD   :    0;
 1FCE   :    0;
 1FCF   :    0;
 1FD0   :    0;
 1FD1   :    0;
 1FD2   :    0;
 1FD3   :    0;
 1FD4   :    0;
 1FD5   :    0;
 1FD6   :    0;
 1FD7   :    0;
 1FD8   :    0;
 1FD9   :    0;
 1FDA   :    0;
 1FDB   :    0;
 1FDC   :    0;
 1FDD   :    0;
 1FDE   :    0;
 1FDF   :    0;
 1FE0   :    0;
 1FE1   :    0;
 1FE2   :    0;
 1FE3   :    0;
 1FE4   :    0;
 1FE5   :    0;
 1FE6   :    0;
 1FE7   :    0;
 1FE8   :    0;
 1FE9   :    0;
 1FEA   :    0;
 1FEB   :    0;
 1FEC   :    0;
 1FED   :    0;
 1FEE   :    0;
 1FEF   :    0;
 1FF0   :    0;
 1FF1   :    0;
 1FF2   :    0;
 1FF3   :    0;
 1FF4   :    0;
 1FF5   :    0;
 1FF6   :    0;
 1FF7   :    0;
 1FF8   :    0;
 1FF9   :    0;
 1FFA   :    0;
 1FFB   :    0;
 1FFC   :    0;
 1FFD   :    0;
 1FFE   :    0;
 1FFF   :    0;
END; 