-- Copyright (C) 1991-2013 Altera Corporation
-- Your use of Altera Corporation's design tools, logic functions 
-- and other software and tools, and its AMPP partner logic 
-- functions, and any output files from any of the foregoing 
-- (including device programming or simulation files), and any 
-- associated documentation or information are expressly subject 
-- to the terms and conditions of the Altera Program License 
-- Subscription Agreement, Altera MegaCore Function License 
-- Agreement, or other applicable license agreement, including, 
-- without limitation, that your use is for the sole purpose of 
-- programming logic devices manufactured by Altera and sold by 
-- Altera or its authorized distributors.  Please refer to the 
-- applicable agreement for further details.

-- Quartus II generated Memory Initialization File (.mif)

WIDTH=8;
DEPTH=16384;

ADDRESS_RADIX=HEX;
DATA_RADIX=HEX;

CONTENT BEGIN    
    0   :    0;
    1   :    0;
    2   :    0;
    3   :    0;
    4   :    0;
    5   :    0;
    6   :    0;
    7   :    0;
    8   :    0;
    9   :    0;
    A   :    0;
    B   :    0;
    C   :    0;
    D   :    0;
    E   :    0;
    F   :    0;
   10   :   FF;
   11   :   FF;
   12   :   FF;
   13   :   FF;
   14   :   FF;
   15   :   FF;
   16   :   FF;
   17   :   FF;
   18   :    0;
   19   :    0;
   1A   :    0;
   1B   :    0;
   1C   :    0;
   1D   :    0;
   1E   :    0;
   1F   :    0;
   20   :   FF;
   21   :    3;
   22   :   39;
   23   :   39;
   24   :    3;
   25   :   39;
   26   :   39;
   27   :    3;
   28   :   7E;
   29   :    3;
   2A   :   21;
   2B   :   38;
   2C   :    3;
   2D   :   21;
   2E   :   38;
   2F   :    0;
   30   :   FF;
   31   :   83;
   32   :   39;
   33   :   39;
   34   :   39;
   35   :   39;
   36   :   39;
   37   :   83;
   38   :   3E;
   39   :    3;
   3A   :   21;
   3B   :   21;
   3C   :   21;
   3D   :   21;
   3E   :   38;
   3F   :    0;
   40   :   FF;
   41   :   39;
   42   :   11;
   43   :    1;
   44   :    1;
   45   :   29;
   46   :   39;
   47   :   39;
   48   :   43;
   49   :   21;
   4A   :   11;
   4B   :    1;
   4C   :    1;
   4D   :   21;
   4E   :   21;
   4F   :    0;
   50   :   FF;
   51   :   9F;
   52   :   9F;
   53   :   9F;
   54   :   9F;
   55   :   9F;
   56   :   9F;
   57   :   81;
   58   :   30;
   59   :   10;
   5A   :   10;
   5B   :   10;
   5C   :   10;
   5D   :   10;
   5E   :   1F;
   5F   :    0;
   60   :   FF;
   61   :   81;
   62   :   E7;
   63   :   E7;
   64   :   E7;
   65   :   E7;
   66   :   E7;
   67   :   81;
   68   :   3F;
   69   :    0;
   6A   :    4;
   6B   :    4;
   6C   :    4;
   6D   :    4;
   6E   :   27;
   6F   :    0;
   70   :    0;
   71   :    0;
   72   :    0;
   73   :    0;
   74   :    0;
   75   :    0;
   76   :    0;
   77   :    3;
   78   :    0;
   79   :    0;
   7A   :    0;
   7B   :    0;
   7C   :    0;
   7D   :    0;
   7E   :    0;
   7F   :    0;
   80   :    0;
   81   :    2;
   82   :    E;
   83   :   1C;
   84   :   38;
   85   :   70;
   86   :   F0;
   87   :   E0;
   88   :    1;
   89   :    1;
   8A   :    1;
   8B   :    3;
   8C   :    7;
   8D   :    F;
   8E   :    F;
   8F   :   1F;
   90   :    0;
   91   :    0;
   92   :    0;
   93   :    0;
   94   :    0;
   95   :    0;
   96   :    0;
   97   :    0;
   98   :    0;
   99   :   80;
   9A   :   C0;
   9B   :   E0;
   9C   :   F0;
   9D   :   F8;
   9E   :   FC;
   9F   :   FE;
   A0   :   FF;
   A1   :   39;
   A2   :   19;
   A3   :    9;
   A4   :    1;
   A5   :   21;
   A6   :   31;
   A7   :   39;
   A8   :   43;
   A9   :   21;
   AA   :   11;
   AB   :    9;
   AC   :    1;
   AD   :   21;
   AE   :   21;
   AF   :    0;
   B0   :    0;
   B1   :    0;
   B2   :    0;
   B3   :    0;
   B4   :    0;
   B5   :    2;
   B6   :    7;
   B7   :    7;
   B8   :    0;
   B9   :    0;
   BA   :    0;
   BB   :    1;
   BC   :    1;
   BD   :    1;
   BE   :    0;
   BF   :    0;
   C0   :    0;
   C1   :    0;
   C2   :    0;
   C3   :    0;
   C4   :    0;
   C5   :    1;
   C6   :    7;
   C7   :   1F;
   C8   :    3;
   C9   :    7;
   CA   :   7F;
   CB   :   FF;
   CC   :   FF;
   CD   :   FF;
   CE   :   FF;
   CF   :   FF;
   D0   :   13;
   D1   :    9;
   D2   :    7;
   D3   :    1;
   D4   :    0;
   D5   :   FC;
   D6   :   FE;
   D7   :   FE;
   D8   :   FC;
   D9   :   FE;
   DA   :   FE;
   DB   :   FE;
   DC   :   FF;
   DD   :   FF;
   DE   :   FF;
   DF   :   FF;
   E0   :   C8;
   E1   :   90;
   E2   :   E0;
   E3   :   80;
   E4   :    0;
   E5   :   3F;
   E6   :   7F;
   E7   :   7F;
   E8   :   3F;
   E9   :   7F;
   EA   :   7F;
   EB   :   7F;
   EC   :   FF;
   ED   :   FF;
   EE   :   FF;
   EF   :   FF;
   F0   :    0;
   F1   :    0;
   F2   :    0;
   F3   :    0;
   F4   :    1;
   F5   :   E1;
   F6   :   F1;
   F7   :   F9;
   F8   :   80;
   F9   :   E0;
   FA   :   F0;
   FB   :   F8;
   FC   :   FE;
   FD   :   FE;
   FE   :   FE;
   FF   :   FE;
  100   :    0;
  101   :    0;
  102   :    0;
  103   :    0;
  104   :   80;
  105   :   C0;
  106   :   F0;
  107   :   F8;
  108   :    0;
  109   :    0;
  10A   :    0;
  10B   :    0;
  10C   :    0;
  10D   :    0;
  10E   :    0;
  10F   :    0;
  110   :   FF;
  111   :    1;
  112   :   3F;
  113   :   3F;
  114   :    3;
  115   :   3F;
  116   :   3F;
  117   :    1;
  118   :   7F;
  119   :    0;
  11A   :   20;
  11B   :   3E;
  11C   :    0;
  11D   :   20;
  11E   :   3F;
  11F   :    0;
  120   :    0;
  121   :    0;
  122   :    0;
  123   :    0;
  124   :    0;
  125   :    0;
  126   :    0;
  127   :    0;
  128   :    0;
  129   :    0;
  12A   :    0;
  12B   :    0;
  12C   :    1;
  12D   :    3;
  12E   :    7;
  12F   :    F;
  130   :    0;
  131   :    8;
  132   :    6;
  133   :    7;
  134   :    3;
  135   :    1;
  136   :    0;
  137   :    0;
  138   :   10;
  139   :   30;
  13A   :   78;
  13B   :   F8;
  13C   :   FC;
  13D   :   FE;
  13E   :   FF;
  13F   :   FF;
  140   :    0;
  141   :    0;
  142   :    0;
  143   :   80;
  144   :   C0;
  145   :   F0;
  146   :   FC;
  147   :   FF;
  148   :    0;
  149   :    0;
  14A   :    0;
  14B   :    0;
  14C   :    0;
  14D   :    0;
  14E   :    0;
  14F   :    0;
  150   :   FF;
  151   :   FF;
  152   :   FF;
  153   :   FF;
  154   :   FF;
  155   :   FF;
  156   :   FF;
  157   :   FF;
  158   :    0;
  159   :    8;
  15A   :   74;
  15B   :    4;
  15C   :    8;
  15D   :   10;
  15E   :   28;
  15F   :   47;
  160   :   FF;
  161   :   FF;
  162   :   FF;
  163   :   FF;
  164   :   FF;
  165   :   FF;
  166   :   FF;
  167   :   FF;
  168   :    0;
  169   :   8C;
  16A   :   97;
  16B   :   97;
  16C   :    F;
  16D   :   12;
  16E   :   A1;
  16F   :   A1;
  170   :   FF;
  171   :   FF;
  172   :   FF;
  173   :   FF;
  174   :   FF;
  175   :   FF;
  176   :   FF;
  177   :   FF;
  178   :   40;
  179   :   31;
  17A   :   1E;
  17B   :   12;
  17C   :   12;
  17D   :   12;
  17E   :   36;
  17F   :    0;
  180   :   FF;
  181   :   FF;
  182   :   FF;
  183   :   FF;
  184   :   FF;
  185   :   FF;
  186   :   FF;
  187   :   FF;
  188   :   A1;
  189   :   21;
  18A   :   A1;
  18B   :   E1;
  18C   :   61;
  18D   :   62;
  18E   :   FF;
  18F   :    0;
  190   :   FF;
  191   :   FF;
  192   :   FF;
  193   :   FF;
  194   :   FF;
  195   :   FF;
  196   :   FF;
  197   :   FF;
  198   :    1;
  199   :   32;
  19A   :   55;
  19B   :   A4;
  19C   :   2A;
  19D   :   45;
  19E   :   42;
  19F   :   40;
  1A0   :   FF;
  1A1   :   FF;
  1A2   :   FF;
  1A3   :   FF;
  1A4   :   FF;
  1A5   :   FF;
  1A6   :   FF;
  1A7   :   FF;
  1A8   :    0;
  1A9   :   C2;
  1AA   :   A7;
  1AB   :   D2;
  1AC   :   E0;
  1AD   :   E0;
  1AE   :   E5;
  1AF   :   EA;
  1B0   :   FF;
  1B1   :   FF;
  1B2   :   FF;
  1B3   :   FF;
  1B4   :   FF;
  1B5   :   FF;
  1B6   :   FF;
  1B7   :   FF;
  1B8   :   20;
  1B9   :   51;
  1BA   :   48;
  1BB   :   45;
  1BC   :    0;
  1BD   :   55;
  1BE   :   7F;
  1BF   :    0;
  1C0   :   FF;
  1C1   :   FF;
  1C2   :   FF;
  1C3   :   FF;
  1C4   :   FF;
  1C5   :   FF;
  1C6   :   FF;
  1C7   :   FF;
  1C8   :   A2;
  1C9   :   22;
  1CA   :   92;
  1CB   :   B2;
  1CC   :    0;
  1CD   :   2A;
  1CE   :   55;
  1CF   :    0;
  1D0   :   FF;
  1D1   :   FF;
  1D2   :   FF;
  1D3   :   FF;
  1D4   :   FF;
  1D5   :   FF;
  1D6   :   FF;
  1D7   :   FF;
  1D8   :    0;
  1D9   :   30;
  1DA   :   78;
  1DB   :   78;
  1DC   :   30;
  1DD   :    0;
  1DE   :   92;
  1DF   :   AA;
  1E0   :   FF;
  1E1   :   FF;
  1E2   :   FF;
  1E3   :   FF;
  1E4   :   FF;
  1E5   :   FF;
  1E6   :   FF;
  1E7   :   FF;
  1E8   :    0;
  1E9   :   1C;
  1EA   :   6A;
  1EB   :   11;
  1EC   :   11;
  1ED   :   11;
  1EE   :    A;
  1EF   :    4;
  1F0   :   FF;
  1F1   :   FF;
  1F2   :   FF;
  1F3   :   FF;
  1F4   :   FF;
  1F5   :   FF;
  1F6   :   FF;
  1F7   :   FF;
  1F8   :   44;
  1F9   :   44;
  1FA   :   44;
  1FB   :   AA;
  1FC   :   92;
  1FD   :    0;
  1FE   :   55;
  1FF   :   7F;
  200   :   FF;
  201   :   FF;
  202   :   FF;
  203   :   FF;
  204   :   FF;
  205   :   FF;
  206   :   FF;
  207   :   FF;
  208   :   1A;
  209   :    0;
  20A   :    4;
  20B   :    A;
  20C   :    4;
  20D   :   1F;
  20E   :    4;
  20F   :    4;
  210   :    1;
  211   :    7;
  212   :   1F;
  213   :   3F;
  214   :   3F;
  215   :   7F;
  216   :   7F;
  217   :   FF;
  218   :   FF;
  219   :   7E;
  21A   :   3C;
  21B   :   38;
  21C   :   30;
  21D   :   60;
  21E   :   40;
  21F   :   80;
  220   :   FF;
  221   :   FE;
  222   :   FE;
  223   :   FC;
  224   :   FC;
  225   :   F8;
  226   :   E0;
  227   :   80;
  228   :    1;
  229   :    2;
  22A   :    6;
  22B   :    C;
  22C   :   1C;
  22D   :   3C;
  22E   :   7E;
  22F   :   FF;
  230   :   80;
  231   :   E0;
  232   :   F8;
  233   :   FC;
  234   :   FC;
  235   :   FE;
  236   :   FE;
  237   :   FF;
  238   :   81;
  239   :   63;
  23A   :   3F;
  23B   :   1F;
  23C   :    F;
  23D   :    7;
  23E   :    3;
  23F   :    1;
  240   :    0;
  241   :    0;
  242   :    0;
  243   :    0;
  244   :    0;
  245   :    3;
  246   :    7;
  247   :    F;
  248   :    0;
  249   :    0;
  24A   :    0;
  24B   :    0;
  24C   :    0;
  24D   :    0;
  24E   :    0;
  24F   :    0;
  250   :    7;
  251   :    F;
  252   :   3F;
  253   :   7F;
  254   :   FE;
  255   :   FE;
  256   :   FC;
  257   :   F8;
  258   :    0;
  259   :    0;
  25A   :    0;
  25B   :    0;
  25C   :    1;
  25D   :    1;
  25E   :    3;
  25F   :    7;
  260   :   C0;
  261   :   C0;
  262   :   80;
  263   :    0;
  264   :    0;
  265   :    0;
  266   :    0;
  267   :    0;
  268   :   3F;
  269   :   3F;
  26A   :   7F;
  26B   :   FF;
  26C   :   FF;
  26D   :   FF;
  26E   :   FF;
  26F   :   FF;
  270   :    0;
  271   :    0;
  272   :    0;
  273   :    0;
  274   :    0;
  275   :    0;
  276   :    0;
  277   :    0;
  278   :   FF;
  279   :   FF;
  27A   :   FF;
  27B   :   FF;
  27C   :   FF;
  27D   :   FF;
  27E   :   FF;
  27F   :   FF;
  280   :    0;
  281   :    0;
  282   :    0;
  283   :    0;
  284   :    0;
  285   :    0;
  286   :    0;
  287   :    1;
  288   :    0;
  289   :   80;
  28A   :   C0;
  28B   :   E0;
  28C   :   F0;
  28D   :   F0;
  28E   :   F8;
  28F   :   FC;
  290   :    F;
  291   :    F;
  292   :   10;
  293   :   3F;
  294   :   3F;
  295   :   73;
  296   :   E3;
  297   :    B;
  298   :    0;
  299   :    0;
  29A   :    F;
  29B   :    0;
  29C   :    0;
  29D   :    C;
  29E   :   1D;
  29F   :   F7;
  2A0   :   3F;
  2A1   :   3F;
  2A2   :   3F;
  2A3   :   30;
  2A4   :   40;
  2A5   :   80;
  2A6   :   80;
  2A7   :   80;
  2A8   :   FF;
  2A9   :   FF;
  2AA   :   FF;
  2AB   :   FF;
  2AC   :   FF;
  2AD   :   FF;
  2AE   :   FF;
  2AF   :   FF;
  2B0   :   FC;
  2B1   :   FE;
  2B2   :   FD;
  2B3   :   FB;
  2B4   :   37;
  2B5   :    F;
  2B6   :   1F;
  2B7   :    7;
  2B8   :   FF;
  2B9   :   FF;
  2BA   :   FE;
  2BB   :   FD;
  2BC   :   FB;
  2BD   :   F7;
  2BE   :   E7;
  2BF   :   FA;
  2C0   :   7F;
  2C1   :   7F;
  2C2   :   7F;
  2C3   :   7F;
  2C4   :   8C;
  2C5   :   E0;
  2C6   :   C0;
  2C7   :   80;
  2C8   :   FF;
  2C9   :   FF;
  2CA   :   9F;
  2CB   :   87;
  2CC   :   73;
  2CD   :   9F;
  2CE   :   BF;
  2CF   :   7F;
  2D0   :   FD;
  2D1   :   FD;
  2D2   :   FE;
  2D3   :    F;
  2D4   :    3;
  2D5   :    0;
  2D6   :    0;
  2D7   :    0;
  2D8   :   FE;
  2D9   :   FE;
  2DA   :   FE;
  2DB   :   FE;
  2DC   :   FF;
  2DD   :   FF;
  2DE   :   FF;
  2DF   :   FF;
  2E0   :   F8;
  2E1   :   FC;
  2E2   :    2;
  2E3   :   CE;
  2E4   :    7;
  2E5   :   B7;
  2E6   :   F7;
  2E7   :   70;
  2E8   :    0;
  2E9   :    0;
  2EA   :   FC;
  2EB   :   30;
  2EC   :   F8;
  2ED   :   C8;
  2EE   :   C8;
  2EF   :   EF;
  2F0   :    0;
  2F1   :    0;
  2F2   :    0;
  2F3   :    0;
  2F4   :    0;
  2F5   :   80;
  2F6   :   C0;
  2F7   :   20;
  2F8   :    0;
  2F9   :    0;
  2FA   :    0;
  2FB   :    0;
  2FC   :    1;
  2FD   :    3;
  2FE   :    7;
  2FF   :   CF;
  300   :   FF;
  301   :   FF;
  302   :   FF;
  303   :   FF;
  304   :   FF;
  305   :   FF;
  306   :   FF;
  307   :   FF;
  308   :   38;
  309   :   4C;
  30A   :   C6;
  30B   :   C6;
  30C   :   C6;
  30D   :   64;
  30E   :   38;
  30F   :    0;
  310   :   FF;
  311   :   FF;
  312   :   FF;
  313   :   FF;
  314   :   FF;
  315   :   FF;
  316   :   FF;
  317   :   FF;
  318   :   18;
  319   :   38;
  31A   :   18;
  31B   :   18;
  31C   :   18;
  31D   :   18;
  31E   :   7E;
  31F   :    0;
  320   :   FF;
  321   :   FF;
  322   :   FF;
  323   :   FF;
  324   :   FF;
  325   :   FF;
  326   :   FF;
  327   :   FF;
  328   :   7C;
  329   :   C6;
  32A   :    E;
  32B   :   3C;
  32C   :   78;
  32D   :   E0;
  32E   :   FE;
  32F   :    0;
  330   :   FF;
  331   :   FF;
  332   :   FF;
  333   :   FF;
  334   :   FF;
  335   :   FF;
  336   :   FF;
  337   :   FF;
  338   :   7E;
  339   :    C;
  33A   :   18;
  33B   :   3C;
  33C   :    6;
  33D   :   C6;
  33E   :   7C;
  33F   :    0;
  340   :   FF;
  341   :   FF;
  342   :   FF;
  343   :   FF;
  344   :   FF;
  345   :   FF;
  346   :   FF;
  347   :   FF;
  348   :   1C;
  349   :   3C;
  34A   :   6C;
  34B   :   CC;
  34C   :   FE;
  34D   :    C;
  34E   :    C;
  34F   :    0;
  350   :   FF;
  351   :   FF;
  352   :   FF;
  353   :   FF;
  354   :   FF;
  355   :   FF;
  356   :   FF;
  357   :   FF;
  358   :   FC;
  359   :   C0;
  35A   :   FC;
  35B   :    6;
  35C   :    6;
  35D   :   C6;
  35E   :   7C;
  35F   :    0;
  360   :   FF;
  361   :   FF;
  362   :   FF;
  363   :   FF;
  364   :   FF;
  365   :   FF;
  366   :   FF;
  367   :   FF;
  368   :   3C;
  369   :   60;
  36A   :   C0;
  36B   :   FC;
  36C   :   C6;
  36D   :   C6;
  36E   :   7C;
  36F   :    0;
  370   :   FF;
  371   :   FF;
  372   :   FF;
  373   :   FF;
  374   :   FF;
  375   :   FF;
  376   :   FF;
  377   :   FF;
  378   :   FE;
  379   :   C6;
  37A   :    C;
  37B   :   18;
  37C   :   30;
  37D   :   30;
  37E   :   30;
  37F   :    0;
  380   :   FF;
  381   :   FF;
  382   :   FF;
  383   :   FF;
  384   :   FF;
  385   :   FF;
  386   :   FF;
  387   :   FF;
  388   :   7C;
  389   :   C6;
  38A   :   C6;
  38B   :   7C;
  38C   :   C6;
  38D   :   C6;
  38E   :   7C;
  38F   :    0;
  390   :   FF;
  391   :   FF;
  392   :   FF;
  393   :   FF;
  394   :   FF;
  395   :   FF;
  396   :   FF;
  397   :   FF;
  398   :   7C;
  399   :   C6;
  39A   :   C6;
  39B   :   7E;
  39C   :    6;
  39D   :    C;
  39E   :   78;
  39F   :    0;
  3A0   :   FF;
  3A1   :   7F;
  3A2   :   7F;
  3A3   :   3F;
  3A4   :   3F;
  3A5   :   1F;
  3A6   :    7;
  3A7   :    1;
  3A8   :   80;
  3A9   :   C0;
  3AA   :   E0;
  3AB   :   F0;
  3AC   :   F8;
  3AD   :   FC;
  3AE   :   C6;
  3AF   :   81;
  3B0   :    1;
  3B1   :    6;
  3B2   :   1E;
  3B3   :   3C;
  3B4   :   3C;
  3B5   :   78;
  3B6   :   60;
  3B7   :   80;
  3B8   :   FF;
  3B9   :   7E;
  3BA   :   3E;
  3BB   :   3C;
  3BC   :   3C;
  3BD   :   7C;
  3BE   :   7E;
  3BF   :   FF;
  3C0   :   EF;
  3C1   :   E7;
  3C2   :   F7;
  3C3   :   EB;
  3C4   :   B3;
  3C5   :   9A;
  3C6   :   A6;
  3C7   :   8F;
  3C8   :   DE;
  3C9   :   9C;
  3CA   :   8E;
  3CB   :   DF;
  3CC   :   FF;
  3CD   :   7F;
  3CE   :   7D;
  3CF   :   70;
  3D0   :   FD;
  3D1   :   DC;
  3D2   :   CC;
  3D3   :   8D;
  3D4   :   9D;
  3D5   :   7C;
  3D6   :   3C;
  3D7   :   3D;
  3D8   :   FB;
  3D9   :   73;
  3DA   :   BB;
  3DB   :   7F;
  3DC   :   FB;
  3DD   :   E3;
  3DE   :   E3;
  3DF   :   FB;
  3E0   :   AF;
  3E1   :   1E;
  3E2   :   A3;
  3E3   :   F1;
  3E4   :   F8;
  3E5   :   FC;
  3E6   :   FC;
  3E7   :   FC;
  3E8   :   70;
  3E9   :   FD;
  3EA   :   FF;
  3EB   :   CF;
  3EC   :   87;
  3ED   :    3;
  3EE   :   83;
  3EF   :   C3;
  3F0   :    5;
  3F1   :   48;
  3F2   :   31;
  3F3   :   F3;
  3F4   :   F8;
  3F5   :   FC;
  3F6   :   79;
  3F7   :   FB;
  3F8   :   FF;
  3F9   :   FF;
  3FA   :   EF;
  3FB   :   CF;
  3FC   :   87;
  3FD   :   83;
  3FE   :   C7;
  3FF   :   F7;
  400   :    0;
  401   :    0;
  402   :    0;
  403   :    0;
  404   :    0;
  405   :    0;
  406   :    0;
  407   :    0;
  408   :   1F;
  409   :   3F;
  40A   :   7F;
  40B   :   FF;
  40C   :   FF;
  40D   :   FF;
  40E   :   FF;
  40F   :   FF;
  410   :    0;
  411   :    0;
  412   :    0;
  413   :    1;
  414   :    7;
  415   :    F;
  416   :   1F;
  417   :   7F;
  418   :    0;
  419   :    0;
  41A   :    0;
  41B   :    0;
  41C   :    0;
  41D   :    0;
  41E   :    0;
  41F   :    0;
  420   :   1F;
  421   :   7F;
  422   :   FF;
  423   :   FF;
  424   :   FF;
  425   :   FF;
  426   :   FF;
  427   :   FE;
  428   :    0;
  429   :    0;
  42A   :    0;
  42B   :    0;
  42C   :    0;
  42D   :    0;
  42E   :    0;
  42F   :    1;
  430   :   F0;
  431   :   F0;
  432   :   E0;
  433   :   C0;
  434   :   C0;
  435   :   80;
  436   :    0;
  437   :    0;
  438   :    F;
  439   :    F;
  43A   :   1F;
  43B   :   3F;
  43C   :   3F;
  43D   :   7F;
  43E   :   FF;
  43F   :   FF;
  440   :    0;
  441   :    0;
  442   :    0;
  443   :    0;
  444   :    0;
  445   :    0;
  446   :    0;
  447   :    0;
  448   :   FF;
  449   :   FF;
  44A   :   FF;
  44B   :   FF;
  44C   :   FF;
  44D   :   FF;
  44E   :   FF;
  44F   :   FF;
  450   :    0;
  451   :    0;
  452   :    0;
  453   :    0;
  454   :    0;
  455   :    1;
  456   :    7;
  457   :    F;
  458   :   FF;
  459   :   FF;
  45A   :   FF;
  45B   :   FF;
  45C   :   FF;
  45D   :   FE;
  45E   :   F8;
  45F   :   F0;
  460   :    7;
  461   :    F;
  462   :   1F;
  463   :   3F;
  464   :   C0;
  465   :   FF;
  466   :   FF;
  467   :   FF;
  468   :   F8;
  469   :   F0;
  46A   :   E0;
  46B   :   C0;
  46C   :   3F;
  46D   :    0;
  46E   :    0;
  46F   :    0;
  470   :   CA;
  471   :   DA;
  472   :   D2;
  473   :   D6;
  474   :   16;
  475   :   96;
  476   :   97;
  477   :   87;
  478   :   37;
  479   :   27;
  47A   :   2F;
  47B   :   2F;
  47C   :   EF;
  47D   :   6F;
  47E   :   6F;
  47F   :   7F;
  480   :    0;
  481   :    0;
  482   :    0;
  483   :    0;
  484   :    1;
  485   :    3;
  486   :    7;
  487   :   8F;
  488   :   FF;
  489   :   FF;
  48A   :   FF;
  48B   :   FF;
  48C   :   FF;
  48D   :   FE;
  48E   :   FC;
  48F   :   F9;
  490   :    F;
  491   :   32;
  492   :   41;
  493   :   86;
  494   :   38;
  495   :   40;
  496   :   80;
  497   :   F8;
  498   :   F0;
  499   :   FF;
  49A   :   FF;
  49B   :   FF;
  49C   :   FF;
  49D   :   FF;
  49E   :   FF;
  49F   :   FF;
  4A0   :   F0;
  4A1   :   8C;
  4A2   :   82;
  4A3   :   61;
  4A4   :   1C;
  4A5   :    2;
  4A6   :    1;
  4A7   :   1F;
  4A8   :    F;
  4A9   :   7F;
  4AA   :   FF;
  4AB   :   FF;
  4AC   :   FF;
  4AD   :   FF;
  4AE   :   FF;
  4AF   :   FF;
  4B0   :    0;
  4B1   :    0;
  4B2   :    0;
  4B3   :    0;
  4B4   :   80;
  4B5   :   40;
  4B6   :   20;
  4B7   :   90;
  4B8   :   FF;
  4B9   :   FF;
  4BA   :   FF;
  4BB   :   FF;
  4BC   :   FF;
  4BD   :   FF;
  4BE   :   FF;
  4BF   :   FF;
  4C0   :   37;
  4C1   :   37;
  4C2   :   37;
  4C3   :   37;
  4C4   :   20;
  4C5   :   2F;
  4C6   :   6F;
  4C7   :   FF;
  4C8   :   E8;
  4C9   :   E8;
  4CA   :   E8;
  4CB   :   E8;
  4CC   :   FF;
  4CD   :   F0;
  4CE   :   F0;
  4CF   :   E0;
  4D0   :   E0;
  4D1   :   F0;
  4D2   :   F8;
  4D3   :   FC;
  4D4   :    2;
  4D5   :   FF;
  4D6   :   FF;
  4D7   :   FF;
  4D8   :   1F;
  4D9   :    F;
  4DA   :    7;
  4DB   :    3;
  4DC   :   FD;
  4DD   :    0;
  4DE   :    0;
  4DF   :    0;
  4E0   :    0;
  4E1   :    0;
  4E2   :    0;
  4E3   :    0;
  4E4   :    0;
  4E5   :    0;
  4E6   :   80;
  4E7   :   C0;
  4E8   :   FF;
  4E9   :   FF;
  4EA   :   FF;
  4EB   :   FF;
  4EC   :   FF;
  4ED   :   FF;
  4EE   :   7F;
  4EF   :   3F;
  4F0   :   7F;
  4F1   :   3F;
  4F2   :   1F;
  4F3   :    F;
  4F4   :    F;
  4F5   :    7;
  4F6   :    3;
  4F7   :    1;
  4F8   :   80;
  4F9   :   C0;
  4FA   :   E0;
  4FB   :   F0;
  4FC   :   F0;
  4FD   :   F8;
  4FE   :   FC;
  4FF   :   FE;
  500   :    1;
  501   :    0;
  502   :    0;
  503   :    0;
  504   :    0;
  505   :    0;
  506   :    0;
  507   :    0;
  508   :   FE;
  509   :   FF;
  50A   :   FF;
  50B   :   FF;
  50C   :   FF;
  50D   :   FF;
  50E   :   FF;
  50F   :   FF;
  510   :   FF;
  511   :   FF;
  512   :   7F;
  513   :   7F;
  514   :   3F;
  515   :   1F;
  516   :    F;
  517   :    F;
  518   :    0;
  519   :    0;
  51A   :   80;
  51B   :   80;
  51C   :   C0;
  51D   :   E0;
  51E   :   F0;
  51F   :   F0;
  520   :   FE;
  521   :   FF;
  522   :   FF;
  523   :   FF;
  524   :   FF;
  525   :   FF;
  526   :   FF;
  527   :   FF;
  528   :    0;
  529   :    0;
  52A   :    0;
  52B   :    0;
  52C   :    0;
  52D   :    0;
  52E   :    0;
  52F   :    0;
  530   :    0;
  531   :    0;
  532   :   C0;
  533   :   E0;
  534   :   F8;
  535   :   FC;
  536   :   FF;
  537   :   FF;
  538   :    0;
  539   :    0;
  53A   :    0;
  53B   :    0;
  53C   :    0;
  53D   :    0;
  53E   :    0;
  53F   :    0;
  540   :    0;
  541   :    0;
  542   :    0;
  543   :    0;
  544   :    0;
  545   :    0;
  546   :    0;
  547   :   80;
  548   :    0;
  549   :    0;
  54A   :    0;
  54B   :    0;
  54C   :    0;
  54D   :    0;
  54E   :    0;
  54F   :    0;
  550   :   80;
  551   :   E0;
  552   :   F8;
  553   :   FE;
  554   :   FF;
  555   :   FF;
  556   :   FF;
  557   :   FF;
  558   :    0;
  559   :    0;
  55A   :    0;
  55B   :    0;
  55C   :    0;
  55D   :    0;
  55E   :    0;
  55F   :    0;
  560   :    0;
  561   :    0;
  562   :    0;
  563   :    0;
  564   :    0;
  565   :   C0;
  566   :   E0;
  567   :   F8;
  568   :    0;
  569   :    0;
  56A   :    0;
  56B   :    0;
  56C   :    0;
  56D   :    0;
  56E   :    0;
  56F   :    0;
  570   :   80;
  571   :   60;
  572   :   78;
  573   :   3C;
  574   :   3C;
  575   :   1E;
  576   :    6;
  577   :    1;
  578   :   81;
  579   :   E3;
  57A   :   FF;
  57B   :   FF;
  57C   :   FF;
  57D   :   FF;
  57E   :   C7;
  57F   :   81;
  580   :   FF;
  581   :   39;
  582   :   11;
  583   :   83;
  584   :   C7;
  585   :   83;
  586   :   11;
  587   :   39;
  588   :   63;
  589   :   31;
  58A   :   10;
  58B   :    0;
  58C   :    6;
  58D   :    3;
  58E   :    1;
  58F   :    0;
  590   :   FF;
  591   :   81;
  592   :   E7;
  593   :   E7;
  594   :   E7;
  595   :   E7;
  596   :   E7;
  597   :   E7;
  598   :   3F;
  599   :    0;
  59A   :    4;
  59B   :    4;
  59C   :    4;
  59D   :    4;
  59E   :    4;
  59F   :    0;
  5A0   :   FF;
  5A1   :   FF;
  5A2   :   FF;
  5A3   :   FF;
  5A4   :   FF;
  5A5   :   FF;
  5A6   :   FF;
  5A7   :   FF;
  5A8   :   FF;
  5A9   :   FF;
  5AA   :   FF;
  5AB   :   FF;
  5AC   :   FF;
  5AD   :   FF;
  5AE   :   FF;
  5AF   :   FF;
  5B0   :   FF;
  5B1   :   C7;
  5B2   :   93;
  5B3   :   39;
  5B4   :   39;
  5B5   :    1;
  5B6   :   39;
  5B7   :   39;
  5B8   :   1C;
  5B9   :    6;
  5BA   :    3;
  5BB   :   21;
  5BC   :   39;
  5BD   :    1;
  5BE   :   21;
  5BF   :    0;
  5C0   :   FF;
  5C1   :   39;
  5C2   :   39;
  5C3   :   39;
  5C4   :   11;
  5C5   :   83;
  5C6   :   C7;
  5C7   :   EF;
  5C8   :   63;
  5C9   :   21;
  5CA   :   21;
  5CB   :   31;
  5CC   :   11;
  5CD   :    2;
  5CE   :    4;
  5CF   :    0;
  5D0   :    0;
  5D1   :    0;
  5D2   :    0;
  5D3   :    0;
  5D4   :    0;
  5D5   :    0;
  5D6   :    0;
  5D7   :    1;
  5D8   :    0;
  5D9   :    0;
  5DA   :    0;
  5DB   :    0;
  5DC   :    0;
  5DD   :    0;
  5DE   :    0;
  5DF   :    0;
  5E0   :    0;
  5E1   :    1;
  5E2   :    3;
  5E3   :    F;
  5E4   :   1F;
  5E5   :   3F;
  5E6   :   7F;
  5E7   :   FF;
  5E8   :    0;
  5E9   :    0;
  5EA   :    0;
  5EB   :    0;
  5EC   :    0;
  5ED   :    0;
  5EE   :    0;
  5EF   :    0;
  5F0   :   FF;
  5F1   :   FF;
  5F2   :   FF;
  5F3   :   FF;
  5F4   :   FF;
  5F5   :   FF;
  5F6   :   FF;
  5F7   :   FF;
  5F8   :    0;
  5F9   :    0;
  5FA   :    0;
  5FB   :    0;
  5FC   :    0;
  5FD   :    0;
  5FE   :    0;
  5FF   :    0;
  600   :   FE;
  601   :   FC;
  602   :   F8;
  603   :   F0;
  604   :   F0;
  605   :   E0;
  606   :   C0;
  607   :   C0;
  608   :    1;
  609   :    3;
  60A   :    7;
  60B   :    F;
  60C   :    F;
  60D   :   1F;
  60E   :   3F;
  60F   :   3F;
  610   :    0;
  611   :    0;
  612   :    0;
  613   :    0;
  614   :    0;
  615   :    0;
  616   :    0;
  617   :    0;
  618   :    0;
  619   :    0;
  61A   :    0;
  61B   :    0;
  61C   :    0;
  61D   :    0;
  61E   :    0;
  61F   :    0;
  620   :    0;
  621   :    0;
  622   :    0;
  623   :    0;
  624   :    3;
  625   :    7;
  626   :    8;
  627   :   1F;
  628   :   FF;
  629   :   FF;
  62A   :   FF;
  62B   :   FF;
  62C   :   FC;
  62D   :   F8;
  62E   :   F7;
  62F   :   E0;
  630   :   1F;
  631   :   20;
  632   :   7F;
  633   :   FF;
  634   :   FF;
  635   :   FF;
  636   :    0;
  637   :   FF;
  638   :   E0;
  639   :   DF;
  63A   :   80;
  63B   :    0;
  63C   :    0;
  63D   :    0;
  63E   :   FF;
  63F   :    0;
  640   :   FF;
  641   :    0;
  642   :   FF;
  643   :   FF;
  644   :   FF;
  645   :   FF;
  646   :    0;
  647   :   FF;
  648   :    0;
  649   :   FF;
  64A   :    0;
  64B   :    0;
  64C   :    0;
  64D   :    0;
  64E   :   FF;
  64F   :    0;
  650   :   C7;
  651   :    7;
  652   :   F3;
  653   :   FF;
  654   :   FF;
  655   :   FF;
  656   :    1;
  657   :   FF;
  658   :   3F;
  659   :   FF;
  65A   :    F;
  65B   :    3;
  65C   :    3;
  65D   :    1;
  65E   :   FF;
  65F   :    0;
  660   :   C7;
  661   :   C0;
  662   :   80;
  663   :   80;
  664   :    0;
  665   :    0;
  666   :    0;
  667   :   81;
  668   :   FF;
  669   :   FF;
  66A   :   FF;
  66B   :   FF;
  66C   :   FF;
  66D   :   FF;
  66E   :   FF;
  66F   :   FE;
  670   :   FE;
  671   :    0;
  672   :    3;
  673   :    7;
  674   :   1F;
  675   :   70;
  676   :   80;
  677   :    0;
  678   :   FF;
  679   :   FF;
  67A   :   FC;
  67B   :   F8;
  67C   :   E0;
  67D   :   8F;
  67E   :   7F;
  67F   :   FF;
  680   :   7F;
  681   :    0;
  682   :   C0;
  683   :   E0;
  684   :   F8;
  685   :    E;
  686   :    1;
  687   :    0;
  688   :   FF;
  689   :   FF;
  68A   :   3F;
  68B   :   1F;
  68C   :    7;
  68D   :   F1;
  68E   :   FE;
  68F   :   FF;
  690   :   E1;
  691   :    1;
  692   :    1;
  693   :    1;
  694   :    1;
  695   :    1;
  696   :    1;
  697   :   83;
  698   :   7F;
  699   :   FF;
  69A   :   FF;
  69B   :   FF;
  69C   :   FF;
  69D   :   FF;
  69E   :   FF;
  69F   :   7D;
  6A0   :   FF;
  6A1   :   C0;
  6A2   :   FF;
  6A3   :   FF;
  6A4   :   FF;
  6A5   :   FF;
  6A6   :    0;
  6A7   :   FF;
  6A8   :   E0;
  6A9   :   FF;
  6AA   :   80;
  6AB   :   80;
  6AC   :    0;
  6AD   :    0;
  6AE   :   FF;
  6AF   :    0;
  6B0   :   FF;
  6B1   :    0;
  6B2   :   FF;
  6B3   :   FF;
  6B4   :   FF;
  6B5   :   FF;
  6B6   :    0;
  6B7   :   FF;
  6B8   :    0;
  6B9   :   FF;
  6BA   :    0;
  6BB   :    0;
  6BC   :    0;
  6BD   :    0;
  6BE   :   FF;
  6BF   :    0;
  6C0   :   E0;
  6C1   :   10;
  6C2   :   F8;
  6C3   :   FC;
  6C4   :   FF;
  6C5   :   FF;
  6C6   :    0;
  6C7   :   FF;
  6C8   :   1F;
  6C9   :   EF;
  6CA   :    7;
  6CB   :    3;
  6CC   :    0;
  6CD   :    0;
  6CE   :   FF;
  6CF   :    0;
  6D0   :    0;
  6D1   :    0;
  6D2   :    0;
  6D3   :    0;
  6D4   :    0;
  6D5   :   80;
  6D6   :   40;
  6D7   :   E0;
  6D8   :   FF;
  6D9   :   FF;
  6DA   :   FF;
  6DB   :   FF;
  6DC   :   FF;
  6DD   :   7F;
  6DE   :   BF;
  6DF   :   1F;
  6E0   :    0;
  6E1   :    0;
  6E2   :    0;
  6E3   :    0;
  6E4   :    0;
  6E5   :    0;
  6E6   :    0;
  6E7   :    0;
  6E8   :    0;
  6E9   :    0;
  6EA   :    0;
  6EB   :    0;
  6EC   :    0;
  6ED   :    0;
  6EE   :    0;
  6EF   :    0;
  6F0   :    7;
  6F1   :    3;
  6F2   :    1;
  6F3   :    1;
  6F4   :    0;
  6F5   :    0;
  6F6   :    0;
  6F7   :    0;
  6F8   :   F8;
  6F9   :   FC;
  6FA   :   FE;
  6FB   :   FE;
  6FC   :   FF;
  6FD   :   FF;
  6FE   :   FF;
  6FF   :   FF;
  700   :   FF;
  701   :   FF;
  702   :   FF;
  703   :   FF;
  704   :   FF;
  705   :   7F;
  706   :   3F;
  707   :   3F;
  708   :    0;
  709   :    0;
  70A   :    0;
  70B   :    0;
  70C   :    0;
  70D   :   80;
  70E   :   C0;
  70F   :   C0;
  710   :    0;
  711   :    0;
  712   :    0;
  713   :    0;
  714   :    0;
  715   :    0;
  716   :    0;
  717   :    0;
  718   :    0;
  719   :    0;
  71A   :    0;
  71B   :    0;
  71C   :    0;
  71D   :    0;
  71E   :    0;
  71F   :    0;
  720   :   E0;
  721   :   F0;
  722   :   FC;
  723   :   FE;
  724   :   FF;
  725   :   FF;
  726   :   FF;
  727   :   FF;
  728   :    0;
  729   :    0;
  72A   :    0;
  72B   :    0;
  72C   :    0;
  72D   :    0;
  72E   :    0;
  72F   :    0;
  730   :    0;
  731   :    0;
  732   :    0;
  733   :    0;
  734   :   80;
  735   :   E0;
  736   :   F0;
  737   :   F8;
  738   :    0;
  739   :    0;
  73A   :    0;
  73B   :    0;
  73C   :    0;
  73D   :    0;
  73E   :    0;
  73F   :    0;
  740   :    0;
  741   :    0;
  742   :    0;
  743   :    0;
  744   :    0;
  745   :   3C;
  746   :   7E;
  747   :   7E;
  748   :    0;
  749   :    0;
  74A   :    0;
  74B   :    0;
  74C   :   3C;
  74D   :   42;
  74E   :   99;
  74F   :   BD;
  750   :   7E;
  751   :   3C;
  752   :    0;
  753   :    0;
  754   :    0;
  755   :    0;
  756   :    0;
  757   :    0;
  758   :   99;
  759   :   42;
  75A   :   3C;
  75B   :    0;
  75C   :    0;
  75D   :    0;
  75E   :    0;
  75F   :    0;
  760   :   FF;
  761   :    3;
  762   :   39;
  763   :   39;
  764   :   39;
  765   :    3;
  766   :   3F;
  767   :   3F;
  768   :   7E;
  769   :    3;
  76A   :   21;
  76B   :   21;
  76C   :   38;
  76D   :    0;
  76E   :   20;
  76F   :    0;
  770   :   FF;
  771   :   99;
  772   :   99;
  773   :   99;
  774   :   C3;
  775   :   E7;
  776   :   E7;
  777   :   E7;
  778   :   33;
  779   :   11;
  77A   :   11;
  77B   :   18;
  77C   :    0;
  77D   :    4;
  77E   :    4;
  77F   :    0;
  780   :   FF;
  781   :    3;
  782   :   39;
  783   :   39;
  784   :   31;
  785   :    7;
  786   :   23;
  787   :   31;
  788   :   7E;
  789   :    3;
  78A   :   21;
  78B   :   21;
  78C   :   30;
  78D   :    6;
  78E   :   23;
  78F   :    0;
  790   :   FF;
  791   :    7;
  792   :   33;
  793   :   39;
  794   :   39;
  795   :   39;
  796   :   33;
  797   :    7;
  798   :   7C;
  799   :    6;
  79A   :   23;
  79B   :   21;
  79C   :   21;
  79D   :   20;
  79E   :   30;
  79F   :    0;
  7A0   :    0;
  7A1   :    0;
  7A2   :    0;
  7A3   :    0;
  7A4   :    0;
  7A5   :    1;
  7A6   :    3;
  7A7   :    7;
  7A8   :    0;
  7A9   :    0;
  7AA   :    0;
  7AB   :    0;
  7AC   :    0;
  7AD   :    0;
  7AE   :    0;
  7AF   :    0;
  7B0   :    3;
  7B1   :    7;
  7B2   :   1F;
  7B3   :   3F;
  7B4   :   7F;
  7B5   :   FF;
  7B6   :   FF;
  7B7   :   FF;
  7B8   :    0;
  7B9   :    0;
  7BA   :    0;
  7BB   :    0;
  7BC   :    0;
  7BD   :    0;
  7BE   :    0;
  7BF   :    0;
  7C0   :   FF;
  7C1   :   FF;
  7C2   :   FF;
  7C3   :   FF;
  7C4   :   FF;
  7C5   :   FF;
  7C6   :   FF;
  7C7   :   FF;
  7C8   :    0;
  7C9   :    0;
  7CA   :    0;
  7CB   :    0;
  7CC   :    0;
  7CD   :    0;
  7CE   :    0;
  7CF   :    0;
  7D0   :   FF;
  7D1   :   FF;
  7D2   :   FF;
  7D3   :   FE;
  7D4   :   FC;
  7D5   :   F8;
  7D6   :   F8;
  7D7   :   F0;
  7D8   :    0;
  7D9   :    0;
  7DA   :    0;
  7DB   :    1;
  7DC   :    3;
  7DD   :    7;
  7DE   :    7;
  7DF   :    F;
  7E0   :   80;
  7E1   :    0;
  7E2   :    0;
  7E3   :    0;
  7E4   :    0;
  7E5   :    0;
  7E6   :    0;
  7E7   :    0;
  7E8   :   7F;
  7E9   :   FF;
  7EA   :   FF;
  7EB   :   FF;
  7EC   :   FF;
  7ED   :   FF;
  7EE   :   FF;
  7EF   :   FF;
  7F0   :    0;
  7F1   :    0;
  7F2   :    0;
  7F3   :    0;
  7F4   :    1;
  7F5   :    1;
  7F6   :    1;
  7F7   :    1;
  7F8   :   FF;
  7F9   :   FF;
  7FA   :   FF;
  7FB   :   FF;
  7FC   :   FE;
  7FD   :   FE;
  7FE   :   FE;
  7FF   :   FE;
  800   :   3F;
  801   :   3F;
  802   :   7F;
  803   :   80;
  804   :   FF;
  805   :   FF;
  806   :   FF;
  807   :   FF;
  808   :   C0;
  809   :   C0;
  80A   :   80;
  80B   :   7F;
  80C   :    0;
  80D   :    0;
  80E   :    0;
  80F   :    0;
  810   :   FF;
  811   :   FF;
  812   :   FF;
  813   :    0;
  814   :   FF;
  815   :   FF;
  816   :   FF;
  817   :   FF;
  818   :    0;
  819   :    0;
  81A   :    0;
  81B   :   FF;
  81C   :    0;
  81D   :    0;
  81E   :    0;
  81F   :    0;
  820   :   FF;
  821   :   39;
  822   :   39;
  823   :   39;
  824   :   39;
  825   :   39;
  826   :   39;
  827   :   83;
  828   :   63;
  829   :   21;
  82A   :   21;
  82B   :   21;
  82C   :   21;
  82D   :   21;
  82E   :   38;
  82F   :    0;
  830   :   FF;
  831   :   87;
  832   :   33;
  833   :   3F;
  834   :   83;
  835   :   F9;
  836   :   39;
  837   :   83;
  838   :   3C;
  839   :    6;
  83A   :   20;
  83B   :   3E;
  83C   :    3;
  83D   :   61;
  83E   :   38;
  83F   :    0;
  840   :   E0;
  841   :   E0;
  842   :   E0;
  843   :   F0;
  844   :   F8;
  845   :   FC;
  846   :   7F;
  847   :   1F;
  848   :   9F;
  849   :   DF;
  84A   :   DF;
  84B   :   EF;
  84C   :   F7;
  84D   :   FB;
  84E   :   FC;
  84F   :   FF;
  850   :    0;
  851   :    0;
  852   :    0;
  853   :    0;
  854   :    0;
  855   :    0;
  856   :    7;
  857   :   F8;
  858   :   FF;
  859   :   FF;
  85A   :   FF;
  85B   :   FF;
  85C   :   FF;
  85D   :   FF;
  85E   :   F8;
  85F   :    7;
  860   :    0;
  861   :    0;
  862   :    0;
  863   :    0;
  864   :    0;
  865   :    0;
  866   :   C3;
  867   :   3F;
  868   :   FF;
  869   :   FF;
  86A   :   FF;
  86B   :   FF;
  86C   :   FF;
  86D   :   FF;
  86E   :   3C;
  86F   :   C3;
  870   :    7;
  871   :    F;
  872   :   1F;
  873   :   7E;
  874   :   7F;
  875   :   FF;
  876   :   FD;
  877   :   F1;
  878   :   FA;
  879   :   F6;
  87A   :   EE;
  87B   :   9F;
  87C   :   BE;
  87D   :   7E;
  87E   :   FE;
  87F   :   FE;
  880   :    0;
  881   :    0;
  882   :    0;
  883   :    0;
  884   :    0;
  885   :    0;
  886   :    0;
  887   :    0;
  888   :    0;
  889   :    0;
  88A   :    0;
  88B   :    0;
  88C   :    0;
  88D   :    0;
  88E   :    0;
  88F   :    0;
  890   :    0;
  891   :    0;
  892   :    0;
  893   :    0;
  894   :    0;
  895   :    0;
  896   :    0;
  897   :    0;
  898   :    0;
  899   :    0;
  89A   :    0;
  89B   :    0;
  89C   :    0;
  89D   :    0;
  89E   :    0;
  89F   :    0;
  8A0   :    0;
  8A1   :    0;
  8A2   :    0;
  8A3   :    0;
  8A4   :    0;
  8A5   :    0;
  8A6   :    0;
  8A7   :    0;
  8A8   :    0;
  8A9   :    0;
  8AA   :    0;
  8AB   :    0;
  8AC   :    0;
  8AD   :    0;
  8AE   :    0;
  8AF   :    0;
  8B0   :   F0;
  8B1   :   F0;
  8B2   :   F8;
  8B3   :    4;
  8B4   :   FC;
  8B5   :   FC;
  8B6   :   F8;
  8B7   :   F0;
  8B8   :    F;
  8B9   :    F;
  8BA   :    7;
  8BB   :   FB;
  8BC   :    3;
  8BD   :    3;
  8BE   :    7;
  8BF   :    F;
  8C0   :    0;
  8C1   :    0;
  8C2   :    0;
  8C3   :    0;
  8C4   :    0;
  8C5   :    0;
  8C6   :    0;
  8C7   :    0;
  8C8   :    0;
  8C9   :    0;
  8CA   :    0;
  8CB   :    0;
  8CC   :    0;
  8CD   :    0;
  8CE   :    0;
  8CF   :    0;
  8D0   :    0;
  8D1   :    0;
  8D2   :    0;
  8D3   :    0;
  8D4   :    0;
  8D5   :    0;
  8D6   :    0;
  8D7   :    0;
  8D8   :    0;
  8D9   :    0;
  8DA   :    0;
  8DB   :    0;
  8DC   :    0;
  8DD   :    0;
  8DE   :    0;
  8DF   :    0;
  8E0   :   1F;
  8E1   :    F;
  8E2   :    F;
  8E3   :    7;
  8E4   :    3;
  8E5   :    1;
  8E6   :    0;
  8E7   :    0;
  8E8   :   E0;
  8E9   :   F0;
  8EA   :   F0;
  8EB   :   F8;
  8EC   :   FC;
  8ED   :   FE;
  8EE   :   FF;
  8EF   :   FF;
  8F0   :    0;
  8F1   :    0;
  8F2   :    0;
  8F3   :    0;
  8F4   :    0;
  8F5   :    0;
  8F6   :    0;
  8F7   :    0;
  8F8   :    0;
  8F9   :    0;
  8FA   :    0;
  8FB   :    0;
  8FC   :    0;
  8FD   :    0;
  8FE   :    0;
  8FF   :    0;
  900   :    0;
  901   :    0;
  902   :    0;
  903   :    0;
  904   :    0;
  905   :    0;
  906   :    0;
  907   :    0;
  908   :    0;
  909   :    0;
  90A   :    0;
  90B   :    0;
  90C   :    0;
  90D   :    0;
  90E   :    0;
  90F   :    0;
  910   :   FE;
  911   :   FF;
  912   :   FF;
  913   :   FF;
  914   :   FF;
  915   :   FF;
  916   :   FF;
  917   :   FF;
  918   :    0;
  919   :    0;
  91A   :    0;
  91B   :    0;
  91C   :    0;
  91D   :    0;
  91E   :    0;
  91F   :    0;
  920   :    0;
  921   :   80;
  922   :   C0;
  923   :   E0;
  924   :   F8;
  925   :   FC;
  926   :   FF;
  927   :   FF;
  928   :    0;
  929   :    0;
  92A   :    0;
  92B   :    0;
  92C   :    0;
  92D   :    0;
  92E   :    0;
  92F   :    0;
  930   :    0;
  931   :    0;
  932   :    0;
  933   :    0;
  934   :    0;
  935   :    0;
  936   :    0;
  937   :   C0;
  938   :    0;
  939   :    0;
  93A   :    0;
  93B   :    0;
  93C   :    0;
  93D   :    0;
  93E   :    0;
  93F   :    0;
  940   :    0;
  941   :    0;
  942   :    0;
  943   :    0;
  944   :    0;
  945   :    0;
  946   :    0;
  947   :    0;
  948   :    0;
  949   :    0;
  94A   :    0;
  94B   :    0;
  94C   :    0;
  94D   :    0;
  94E   :    0;
  94F   :    0;
  950   :    0;
  951   :    0;
  952   :    0;
  953   :    0;
  954   :    0;
  955   :    0;
  956   :    0;
  957   :    0;
  958   :    0;
  959   :    0;
  95A   :    0;
  95B   :    0;
  95C   :    0;
  95D   :    0;
  95E   :    0;
  95F   :    0;
  960   :    0;
  961   :    0;
  962   :    0;
  963   :    0;
  964   :    0;
  965   :    0;
  966   :    0;
  967   :    0;
  968   :    0;
  969   :    0;
  96A   :    0;
  96B   :    0;
  96C   :    0;
  96D   :    0;
  96E   :    0;
  96F   :    0;
  970   :    0;
  971   :    0;
  972   :    0;
  973   :    0;
  974   :    3;
  975   :    7;
  976   :    F;
  977   :   1F;
  978   :    0;
  979   :    0;
  97A   :    0;
  97B   :    0;
  97C   :    0;
  97D   :    0;
  97E   :    0;
  97F   :    0;
  980   :    F;
  981   :   3F;
  982   :   7F;
  983   :   FF;
  984   :   FF;
  985   :   FF;
  986   :   FF;
  987   :   FF;
  988   :    0;
  989   :    0;
  98A   :    0;
  98B   :    0;
  98C   :    0;
  98D   :    0;
  98E   :    0;
  98F   :    0;
  990   :    0;
  991   :    0;
  992   :    0;
  993   :    0;
  994   :    0;
  995   :    0;
  996   :    0;
  997   :    0;
  998   :    0;
  999   :    0;
  99A   :    0;
  99B   :    0;
  99C   :    0;
  99D   :    0;
  99E   :    0;
  99F   :    0;
  9A0   :   FF;
  9A1   :   FF;
  9A2   :   FF;
  9A3   :   FF;
  9A4   :   FF;
  9A5   :   FF;
  9A6   :   FE;
  9A7   :   FC;
  9A8   :    0;
  9A9   :    0;
  9AA   :    0;
  9AB   :    0;
  9AC   :    0;
  9AD   :    0;
  9AE   :    1;
  9AF   :    3;
  9B0   :   E0;
  9B1   :   C0;
  9B2   :   C0;
  9B3   :   80;
  9B4   :   80;
  9B5   :    0;
  9B6   :    0;
  9B7   :    0;
  9B8   :   1F;
  9B9   :   3F;
  9BA   :   3F;
  9BB   :   7F;
  9BC   :   7F;
  9BD   :   FF;
  9BE   :   FF;
  9BF   :   FF;
  9C0   :    0;
  9C1   :    0;
  9C2   :    0;
  9C3   :    0;
  9C4   :    0;
  9C5   :    0;
  9C6   :    0;
  9C7   :    0;
  9C8   :    0;
  9C9   :    0;
  9CA   :    0;
  9CB   :    0;
  9CC   :    0;
  9CD   :    0;
  9CE   :    0;
  9CF   :    0;
  9D0   :    0;
  9D1   :    0;
  9D2   :    0;
  9D3   :    0;
  9D4   :    0;
  9D5   :    0;
  9D6   :    0;
  9D7   :    0;
  9D8   :    0;
  9D9   :    0;
  9DA   :    0;
  9DB   :    0;
  9DC   :    0;
  9DD   :    0;
  9DE   :    0;
  9DF   :    0;
  9E0   :   80;
  9E1   :   7F;
  9E2   :   3F;
  9E3   :   1F;
  9E4   :    F;
  9E5   :    4;
  9E6   :    1;
  9E7   :    0;
  9E8   :   7F;
  9E9   :   80;
  9EA   :   C0;
  9EB   :   E0;
  9EC   :   F0;
  9ED   :   FB;
  9EE   :   FE;
  9EF   :   FF;
  9F0   :    0;
  9F1   :   FF;
  9F2   :   FF;
  9F3   :   FF;
  9F4   :   FF;
  9F5   :    0;
  9F6   :   FF;
  9F7   :   7F;
  9F8   :   FF;
  9F9   :    0;
  9FA   :    0;
  9FB   :    0;
  9FC   :    0;
  9FD   :   FF;
  9FE   :    0;
  9FF   :   80;
  A00   :    0;
  A01   :   FF;
  A02   :   FF;
  A03   :   FF;
  A04   :   FF;
  A05   :    0;
  A06   :   FF;
  A07   :   FF;
  A08   :   FF;
  A09   :    0;
  A0A   :    0;
  A0B   :    0;
  A0C   :    0;
  A0D   :   FF;
  A0E   :    0;
  A0F   :    0;
  A10   :    0;
  A11   :   FF;
  A12   :   FF;
  A13   :   FF;
  A14   :   FF;
  A15   :    1;
  A16   :   FF;
  A17   :   FF;
  A18   :   FF;
  A19   :    0;
  A1A   :    0;
  A1B   :    0;
  A1C   :    0;
  A1D   :   FF;
  A1E   :    1;
  A1F   :    3;
  A20   :    3;
  A21   :    2;
  A22   :    4;
  A23   :    8;
  A24   :    8;
  A25   :   18;
  A26   :   20;
  A27   :   40;
  A28   :   FF;
  A29   :   FD;
  A2A   :   FB;
  A2B   :   F7;
  A2C   :   F7;
  A2D   :   E7;
  A2E   :   DF;
  A2F   :   BF;
  A30   :   80;
  A31   :    0;
  A32   :    0;
  A33   :    0;
  A34   :    0;
  A35   :    0;
  A36   :    0;
  A37   :    0;
  A38   :   FF;
  A39   :   FF;
  A3A   :   FF;
  A3B   :   FF;
  A3C   :   FF;
  A3D   :   FF;
  A3E   :   FF;
  A3F   :   FF;
  A40   :    3;
  A41   :    0;
  A42   :    0;
  A43   :    0;
  A44   :    0;
  A45   :    0;
  A46   :    0;
  A47   :    0;
  A48   :   FF;
  A49   :   FF;
  A4A   :   FF;
  A4B   :   FF;
  A4C   :   FF;
  A4D   :   FF;
  A4E   :   FF;
  A4F   :   FF;
  A50   :   81;
  A51   :   81;
  A52   :   41;
  A53   :   21;
  A54   :   11;
  A55   :   18;
  A56   :    6;
  A57   :    2;
  A58   :   FE;
  A59   :   7E;
  A5A   :   BE;
  A5B   :   DE;
  A5C   :   EE;
  A5D   :   E7;
  A5E   :   F9;
  A5F   :   FD;
  A60   :    0;
  A61   :   FF;
  A62   :   FF;
  A63   :   FF;
  A64   :   FF;
  A65   :    0;
  A66   :   FF;
  A67   :   7F;
  A68   :   FF;
  A69   :    0;
  A6A   :    0;
  A6B   :    0;
  A6C   :    0;
  A6D   :   FF;
  A6E   :    0;
  A6F   :   80;
  A70   :    0;
  A71   :   FF;
  A72   :   FF;
  A73   :   FF;
  A74   :   FF;
  A75   :    0;
  A76   :   FF;
  A77   :   FF;
  A78   :   FF;
  A79   :    0;
  A7A   :    0;
  A7B   :    0;
  A7C   :    0;
  A7D   :   FF;
  A7E   :    0;
  A7F   :    0;
  A80   :    0;
  A81   :   FF;
  A82   :   FF;
  A83   :   FF;
  A84   :   FE;
  A85   :    4;
  A86   :   F8;
  A87   :   E0;
  A88   :   FF;
  A89   :    0;
  A8A   :    0;
  A8B   :    0;
  A8C   :    1;
  A8D   :   FB;
  A8E   :    7;
  A8F   :   1F;
  A90   :   20;
  A91   :   C0;
  A92   :   80;
  A93   :    0;
  A94   :    0;
  A95   :    0;
  A96   :    0;
  A97   :    0;
  A98   :   DF;
  A99   :   3F;
  A9A   :   7F;
  A9B   :   FF;
  A9C   :   FF;
  A9D   :   FF;
  A9E   :   FF;
  A9F   :   FF;
  AA0   :   7F;
  AA1   :   3F;
  AA2   :   1F;
  AA3   :    F;
  AA4   :    F;
  AA5   :    7;
  AA6   :    3;
  AA7   :    3;
  AA8   :   80;
  AA9   :   C0;
  AAA   :   E0;
  AAB   :   F0;
  AAC   :   F0;
  AAD   :   F8;
  AAE   :   FC;
  AAF   :   FC;
  AB0   :   E0;
  AB1   :   F0;
  AB2   :   FC;
  AB3   :   FF;
  AB4   :   FF;
  AB5   :   FF;
  AB6   :   FF;
  AB7   :   FF;
  AB8   :    0;
  AB9   :    0;
  ABA   :    0;
  ABB   :    0;
  ABC   :    0;
  ABD   :    0;
  ABE   :    0;
  ABF   :    0;
  AC0   :    0;
  AC1   :    0;
  AC2   :    0;
  AC3   :    0;
  AC4   :   80;
  AC5   :   C0;
  AC6   :   F0;
  AC7   :   F8;
  AC8   :    0;
  AC9   :    0;
  ACA   :    0;
  ACB   :    0;
  ACC   :    0;
  ACD   :    0;
  ACE   :    0;
  ACF   :    0;
  AD0   :    0;
  AD1   :    0;
  AD2   :    1;
  AD3   :    7;
  AD4   :    F;
  AD5   :   1F;
  AD6   :   3F;
  AD7   :   FF;
  AD8   :    0;
  AD9   :    0;
  ADA   :    0;
  ADB   :    0;
  ADC   :    0;
  ADD   :    0;
  ADE   :    0;
  ADF   :    0;
  AE0   :   7F;
  AE1   :   FF;
  AE2   :   FF;
  AE3   :   FF;
  AE4   :   FF;
  AE5   :   FF;
  AE6   :   FF;
  AE7   :   FF;
  AE8   :    0;
  AE9   :    0;
  AEA   :    0;
  AEB   :    0;
  AEC   :    0;
  AED   :    0;
  AEE   :    0;
  AEF   :    0;
  AF0   :   FC;
  AF1   :   F8;
  AF2   :   F0;
  AF3   :   E0;
  AF4   :   E0;
  AF5   :   C0;
  AF6   :   80;
  AF7   :    0;
  AF8   :    3;
  AF9   :    7;
  AFA   :    F;
  AFB   :   1F;
  AFC   :   1F;
  AFD   :   3F;
  AFE   :   7F;
  AFF   :   FF;
  B00   :    0;
  B01   :    0;
  B02   :    0;
  B03   :    0;
  B04   :    0;
  B05   :    0;
  B06   :    0;
  B07   :    1;
  B08   :   FF;
  B09   :   FF;
  B0A   :   FF;
  B0B   :   FF;
  B0C   :   FF;
  B0D   :   FF;
  B0E   :   FF;
  B0F   :   FF;
  B10   :    0;
  B11   :    0;
  B12   :    0;
  B13   :    0;
  B14   :    0;
  B15   :    0;
  B16   :   1F;
  B17   :   FF;
  B18   :   FF;
  B19   :   FF;
  B1A   :   FF;
  B1B   :   FF;
  B1C   :   FF;
  B1D   :   FF;
  B1E   :   FF;
  B1F   :   E0;
  B20   :    0;
  B21   :    0;
  B22   :    1;
  B23   :    7;
  B24   :    8;
  B25   :   18;
  B26   :   FF;
  B27   :    0;
  B28   :   FF;
  B29   :   FF;
  B2A   :   FF;
  B2B   :   FE;
  B2C   :   FF;
  B2D   :   FF;
  B2E   :   E0;
  B2F   :   FF;
  B30   :    0;
  B31   :    7;
  B32   :   F8;
  B33   :   FF;
  B34   :    0;
  B35   :    0;
  B36   :   FF;
  B37   :    0;
  B38   :   FF;
  B39   :   FF;
  B3A   :   FF;
  B3B   :    0;
  B3C   :   FF;
  B3D   :   FF;
  B3E   :    0;
  B3F   :   FF;
  B40   :   3F;
  B41   :   FF;
  B42   :    0;
  B43   :   FF;
  B44   :    0;
  B45   :    0;
  B46   :   FF;
  B47   :    0;
  B48   :   C0;
  B49   :   FF;
  B4A   :   FF;
  B4B   :    0;
  B4C   :   FF;
  B4D   :   FF;
  B4E   :    0;
  B4F   :   FF;
  B50   :   FF;
  B51   :   FF;
  B52   :    0;
  B53   :   FF;
  B54   :    0;
  B55   :    0;
  B56   :   FF;
  B57   :    0;
  B58   :    0;
  B59   :   FF;
  B5A   :   FF;
  B5B   :    0;
  B5C   :   FF;
  B5D   :   FF;
  B5E   :    0;
  B5F   :   FF;
  B60   :   FE;
  B61   :   C0;
  B62   :    0;
  B63   :   FF;
  B64   :    0;
  B65   :    0;
  B66   :   FF;
  B67   :    0;
  B68   :   7F;
  B69   :   FF;
  B6A   :   FF;
  B6B   :    0;
  B6C   :   FF;
  B6D   :   FF;
  B6E   :    0;
  B6F   :   FF;
  B70   :   80;
  B71   :    0;
  B72   :    0;
  B73   :   FF;
  B74   :    0;
  B75   :    0;
  B76   :   FF;
  B77   :    0;
  B78   :   7F;
  B79   :   FF;
  B7A   :   FF;
  B7B   :    0;
  B7C   :   FF;
  B7D   :   FF;
  B7E   :    0;
  B7F   :   FF;
  B80   :    0;
  B81   :    0;
  B82   :    0;
  B83   :   FF;
  B84   :   3F;
  B85   :   40;
  B86   :   C0;
  B87   :   FF;
  B88   :   FF;
  B89   :   FF;
  B8A   :   FF;
  B8B   :    F;
  B8C   :   F0;
  B8D   :   FF;
  B8E   :   7F;
  B8F   :   80;
  B90   :    0;
  B91   :    0;
  B92   :    0;
  B93   :   FF;
  B94   :   FC;
  B95   :    2;
  B96   :    3;
  B97   :   FF;
  B98   :   FF;
  B99   :   FF;
  B9A   :   FF;
  B9B   :   F0;
  B9C   :    F;
  B9D   :   FF;
  B9E   :   FE;
  B9F   :    1;
  BA0   :    3;
  BA1   :    0;
  BA2   :    0;
  BA3   :   FF;
  BA4   :    0;
  BA5   :    0;
  BA6   :   FF;
  BA7   :    0;
  BA8   :   FD;
  BA9   :   FF;
  BAA   :   FF;
  BAB   :    0;
  BAC   :   FF;
  BAD   :   FF;
  BAE   :    0;
  BAF   :   FF;
  BB0   :   FF;
  BB1   :    1;
  BB2   :    0;
  BB3   :   FF;
  BB4   :    0;
  BB5   :    0;
  BB6   :   FF;
  BB7   :    0;
  BB8   :   FE;
  BB9   :   FF;
  BBA   :   FF;
  BBB   :    0;
  BBC   :   FF;
  BBD   :   FF;
  BBE   :    0;
  BBF   :   FF;
  BC0   :   FF;
  BC1   :    0;
  BC2   :    0;
  BC3   :   FF;
  BC4   :    0;
  BC5   :    0;
  BC6   :   FF;
  BC7   :    0;
  BC8   :   FF;
  BC9   :   FF;
  BCA   :   FF;
  BCB   :    0;
  BCC   :   FF;
  BCD   :   FF;
  BCE   :    0;
  BCF   :   FF;
  BD0   :   C0;
  BD1   :   FF;
  BD2   :    0;
  BD3   :   FF;
  BD4   :    0;
  BD5   :    0;
  BD6   :   FF;
  BD7   :    0;
  BD8   :   3F;
  BD9   :   FF;
  BDA   :   FF;
  BDB   :    0;
  BDC   :   FF;
  BDD   :   FF;
  BDE   :    0;
  BDF   :   FF;
  BE0   :    0;
  BE1   :   F0;
  BE2   :    F;
  BE3   :   FF;
  BE4   :    0;
  BE5   :    0;
  BE6   :   FF;
  BE7   :    0;
  BE8   :   FF;
  BE9   :   FF;
  BEA   :   FF;
  BEB   :    0;
  BEC   :   FF;
  BED   :   FF;
  BEE   :    0;
  BEF   :   FF;
  BF0   :    0;
  BF1   :    0;
  BF2   :   80;
  BF3   :   E0;
  BF4   :   20;
  BF5   :   18;
  BF6   :   FF;
  BF7   :    0;
  BF8   :   FF;
  BF9   :   FF;
  BFA   :   FF;
  BFB   :   7F;
  BFC   :   FF;
  BFD   :   FF;
  BFE   :    7;
  BFF   :   FF;
  C00   :    0;
  C01   :    0;
  C02   :    0;
  C03   :    0;
  C04   :    0;
  C05   :    0;
  C06   :   F8;
  C07   :    7;
  C08   :   FF;
  C09   :   FF;
  C0A   :   FF;
  C0B   :   FF;
  C0C   :   FF;
  C0D   :   FF;
  C0E   :   FF;
  C0F   :   FF;
  C10   :    0;
  C11   :    0;
  C12   :    0;
  C13   :    0;
  C14   :    0;
  C15   :    0;
  C16   :    0;
  C17   :   80;
  C18   :   FF;
  C19   :   FF;
  C1A   :   FF;
  C1B   :   FF;
  C1C   :   FF;
  C1D   :   FF;
  C1E   :   FF;
  C1F   :   FF;
  C20   :   FF;
  C21   :   FF;
  C22   :   7F;
  C23   :   7F;
  C24   :   3F;
  C25   :   1F;
  C26   :    F;
  C27   :    7;
  C28   :    0;
  C29   :    0;
  C2A   :   80;
  C2B   :   80;
  C2C   :   C0;
  C2D   :   E0;
  C2E   :   F0;
  C2F   :   F8;
  C30   :   FC;
  C31   :   FF;
  C32   :   FF;
  C33   :   FF;
  C34   :   FF;
  C35   :   FF;
  C36   :   FF;
  C37   :   FF;
  C38   :    0;
  C39   :    0;
  C3A   :    0;
  C3B   :    0;
  C3C   :    0;
  C3D   :    0;
  C3E   :    0;
  C3F   :    0;
  C40   :    0;
  C41   :    0;
  C42   :   80;
  C43   :   E0;
  C44   :   F8;
  C45   :   FE;
  C46   :   FF;
  C47   :   FF;
  C48   :    0;
  C49   :    0;
  C4A   :    0;
  C4B   :    0;
  C4C   :    0;
  C4D   :    0;
  C4E   :    0;
  C4F   :    0;
  C50   :   FF;
  C51   :   FF;
  C52   :   FF;
  C53   :   FF;
  C54   :   FF;
  C55   :   FF;
  C56   :   FF;
  C57   :   FF;
  C58   :    0;
  C59   :    0;
  C5A   :    0;
  C5B   :    0;
  C5C   :    0;
  C5D   :    0;
  C5E   :    0;
  C5F   :    7;
  C60   :   FF;
  C61   :   FF;
  C62   :   FF;
  C63   :   FF;
  C64   :   FF;
  C65   :   FE;
  C66   :   F0;
  C67   :   88;
  C68   :    0;
  C69   :    0;
  C6A   :    0;
  C6B   :    0;
  C6C   :    1;
  C6D   :    F;
  C6E   :   7F;
  C6F   :   F7;
  C70   :   FF;
  C71   :   FF;
  C72   :   FF;
  C73   :   FF;
  C74   :   F8;
  C75   :    0;
  C76   :   3F;
  C77   :   C0;
  C78   :    0;
  C79   :    0;
  C7A   :    0;
  C7B   :    7;
  C7C   :   FF;
  C7D   :   FF;
  C7E   :   C0;
  C7F   :   3F;
  C80   :   FE;
  C81   :   FE;
  C82   :   FC;
  C83   :   FF;
  C84   :    0;
  C85   :    0;
  C86   :   83;
  C87   :   44;
  C88   :    1;
  C89   :    1;
  C8A   :    3;
  C8B   :   FF;
  C8C   :   FF;
  C8D   :   FF;
  C8E   :   7C;
  C8F   :   BB;
  C90   :    0;
  C91   :    0;
  C92   :    0;
  C93   :   FF;
  C94   :    0;
  C95   :    0;
  C96   :   F8;
  C97   :    4;
  C98   :   FF;
  C99   :   FF;
  C9A   :   FF;
  C9B   :   FF;
  C9C   :   FF;
  C9D   :   FF;
  C9E   :    7;
  C9F   :   FB;
  CA0   :    6;
  CA1   :    8;
  CA2   :   70;
  CA3   :   FF;
  CA4   :   7E;
  CA5   :    1;
  CA6   :   3F;
  CA7   :   40;
  CA8   :   FF;
  CA9   :   FF;
  CAA   :   FF;
  CAB   :   80;
  CAC   :   FF;
  CAD   :   FF;
  CAE   :   C0;
  CAF   :   BF;
  CB0   :    0;
  CB1   :    0;
  CB2   :    0;
  CB3   :   FF;
  CB4   :    0;
  CB5   :   80;
  CB6   :   E0;
  CB7   :   78;
  CB8   :   FF;
  CB9   :   FF;
  CBA   :   FF;
  CBB   :    0;
  CBC   :   FF;
  CBD   :   FF;
  CBE   :   7F;
  CBF   :   9F;
  CC0   :    0;
  CC1   :    0;
  CC2   :    0;
  CC3   :   FF;
  CC4   :    0;
  CC5   :    0;
  CC6   :    0;
  CC7   :    0;
  CC8   :   FF;
  CC9   :   FF;
  CCA   :   FF;
  CCB   :    0;
  CCC   :   FF;
  CCD   :    0;
  CCE   :    0;
  CCF   :    0;
  CD0   :    0;
  CD1   :    0;
  CD2   :    0;
  CD3   :   FF;
  CD4   :    E;
  CD5   :    0;
  CD6   :    0;
  CD7   :    0;
  CD8   :   FF;
  CD9   :   FF;
  CDA   :   FF;
  CDB   :    1;
  CDC   :   FF;
  CDD   :    0;
  CDE   :    0;
  CDF   :    0;
  CE0   :    0;
  CE1   :    0;
  CE2   :    3;
  CE3   :   FF;
  CE4   :    0;
  CE5   :    0;
  CE6   :    0;
  CE7   :    0;
  CE8   :   FF;
  CE9   :   FF;
  CEA   :   FF;
  CEB   :   FC;
  CEC   :   FF;
  CED   :    0;
  CEE   :    0;
  CEF   :    0;
  CF0   :    0;
  CF1   :    0;
  CF2   :   C0;
  CF3   :   FF;
  CF4   :    0;
  CF5   :    0;
  CF6   :    0;
  CF7   :    0;
  CF8   :   FF;
  CF9   :   FF;
  CFA   :   FF;
  CFB   :   3F;
  CFC   :   FF;
  CFD   :    0;
  CFE   :    0;
  CFF   :    0;
  D00   :    0;
  D01   :    0;
  D02   :    0;
  D03   :   FF;
  D04   :   E0;
  D05   :    0;
  D06   :    0;
  D07   :    0;
  D08   :   FF;
  D09   :   FF;
  D0A   :   FF;
  D0B   :    0;
  D0C   :   FF;
  D0D   :    0;
  D0E   :    0;
  D0F   :    0;
  D10   :    0;
  D11   :    0;
  D12   :    0;
  D13   :   FF;
  D14   :    0;
  D15   :    1;
  D16   :    6;
  D17   :    8;
  D18   :   FF;
  D19   :   FF;
  D1A   :   FF;
  D1B   :    0;
  D1C   :   FF;
  D1D   :   FF;
  D1E   :   FF;
  D1F   :   FF;
  D20   :   60;
  D21   :   10;
  D22   :    E;
  D23   :   FF;
  D24   :   7F;
  D25   :   B0;
  D26   :    E;
  D27   :    3;
  D28   :   FF;
  D29   :   FF;
  D2A   :   FF;
  D2B   :    0;
  D2C   :   FF;
  D2D   :   CF;
  D2E   :   F1;
  D2F   :   FC;
  D30   :    0;
  D31   :    0;
  D32   :    7;
  D33   :   F8;
  D34   :    0;
  D35   :    1;
  D36   :   1E;
  D37   :   A0;
  D38   :   FF;
  D39   :   FF;
  D3A   :   FF;
  D3B   :   FF;
  D3C   :   FF;
  D3D   :   FE;
  D3E   :   E1;
  D3F   :   5F;
  D40   :    7;
  D41   :    3;
  D42   :   FF;
  D43   :    1;
  D44   :    0;
  D45   :   F0;
  D46   :    C;
  D47   :    3;
  D48   :   F8;
  D49   :   FC;
  D4A   :   FE;
  D4B   :   FF;
  D4C   :   FF;
  D4D   :    F;
  D4E   :   F3;
  D4F   :   FC;
  D50   :   FF;
  D51   :   FF;
  D52   :   FF;
  D53   :   FF;
  D54   :   FF;
  D55   :   7F;
  D56   :   80;
  D57   :    0;
  D58   :    0;
  D59   :    0;
  D5A   :    0;
  D5B   :    0;
  D5C   :   FF;
  D5D   :   80;
  D5E   :   7F;
  D5F   :   FF;
  D60   :   FF;
  D61   :   FF;
  D62   :   FF;
  D63   :   FF;
  D64   :   FF;
  D65   :   7F;
  D66   :   EF;
  D67   :   3F;
  D68   :    0;
  D69   :    0;
  D6A   :    0;
  D6B   :    0;
  D6C   :   80;
  D6D   :   F0;
  D6E   :   1F;
  D6F   :   C0;
  D70   :   FF;
  D71   :   FF;
  D72   :   FF;
  D73   :   FF;
  D74   :   FF;
  D75   :   FF;
  D76   :   FF;
  D77   :   E3;
  D78   :    0;
  D79   :    0;
  D7A   :    0;
  D7B   :    0;
  D7C   :    0;
  D7D   :    0;
  D7E   :   FC;
  D7F   :   1F;
  D80   :   F0;
  D81   :   F3;
  D82   :   EC;
  D83   :   E0;
  D84   :   C0;
  D85   :   C0;
  D86   :   C0;
  D87   :   C0;
  D88   :   1F;
  D89   :   1C;
  D8A   :   33;
  D8B   :   3F;
  D8C   :   7F;
  D8D   :   7F;
  D8E   :   7F;
  D8F   :   7F;
  D90   :    9;
  D91   :   8A;
  D92   :   64;
  D93   :   1B;
  D94   :    4;
  D95   :    0;
  D96   :    0;
  D97   :    0;
  D98   :   F6;
  D99   :   75;
  D9A   :   9B;
  D9B   :   E4;
  D9C   :   FB;
  D9D   :   FF;
  D9E   :   FF;
  D9F   :   FF;
  DA0   :    0;
  DA1   :    E;
  DA2   :   71;
  DA3   :   80;
  DA4   :    0;
  DA5   :    0;
  DA6   :    0;
  DA7   :    0;
  DA8   :   FF;
  DA9   :   F1;
  DAA   :   8E;
  DAB   :   7F;
  DAC   :   FF;
  DAD   :   FF;
  DAE   :   FF;
  DAF   :   FF;
  DB0   :   28;
  DB1   :   10;
  DB2   :   81;
  DB3   :   6E;
  DB4   :   28;
  DB5   :   10;
  DB6   :    0;
  DB7   :    0;
  DB8   :   D7;
  DB9   :   EF;
  DBA   :   7E;
  DBB   :   91;
  DBC   :   D7;
  DBD   :   EF;
  DBE   :   FF;
  DBF   :   FF;
  DC0   :    2;
  DC1   :   61;
  DC2   :   98;
  DC3   :    6;
  DC4   :    2;
  DC5   :    1;
  DC6   :    0;
  DC7   :    0;
  DC8   :   FD;
  DC9   :   9E;
  DCA   :   67;
  DCB   :   F9;
  DCC   :   FD;
  DCD   :   FE;
  DCE   :   FF;
  DCF   :   FF;
  DD0   :   80;
  DD1   :    F;
  DD2   :   30;
  DD3   :   C0;
  DD4   :    0;
  DD5   :    0;
  DD6   :    0;
  DD7   :    0;
  DD8   :   7F;
  DD9   :   F0;
  DDA   :   CF;
  DDB   :   3F;
  DDC   :   FF;
  DDD   :   FF;
  DDE   :   FF;
  DDF   :   FF;
  DE0   :   28;
  DE1   :   18;
  DE2   :   C8;
  DE3   :   38;
  DE4   :    8;
  DE5   :    8;
  DE6   :    8;
  DE7   :    8;
  DE8   :   DF;
  DE9   :   EF;
  DEA   :   3F;
  DEB   :   CF;
  DEC   :   FF;
  DED   :   FF;
  DEE   :   FF;
  DEF   :   FF;
  DF0   :    8;
  DF1   :   F8;
  DF2   :   10;
  DF3   :   13;
  DF4   :   14;
  DF5   :   10;
  DF6   :   10;
  DF7   :   10;
  DF8   :   FF;
  DF9   :    F;
  DFA   :   FF;
  DFB   :   FC;
  DFC   :   FB;
  DFD   :   FF;
  DFE   :   FF;
  DFF   :   FF;
  E00   :    0;
  E01   :    0;
  E02   :   F0;
  E03   :   1C;
  E04   :    7;
  E05   :    1;
  E06   :    0;
  E07   :    0;
  E08   :   FF;
  E09   :   FF;
  E0A   :    F;
  E0B   :   E3;
  E0C   :   F8;
  E0D   :   FE;
  E0E   :   FF;
  E0F   :   FF;
  E10   :   A0;
  E11   :   40;
  E12   :    3;
  E13   :    C;
  E14   :   10;
  E15   :   A0;
  E16   :   A0;
  E17   :   40;
  E18   :   5F;
  E19   :   BF;
  E1A   :   FC;
  E1B   :   F3;
  E1C   :   EF;
  E1D   :   5F;
  E1E   :   5F;
  E1F   :   BF;
  E20   :    2;
  E21   :    2;
  E22   :   E0;
  E23   :   18;
  E24   :    5;
  E25   :    5;
  E26   :    5;
  E27   :    2;
  E28   :   FD;
  E29   :   FD;
  E2A   :   1F;
  E2B   :   E7;
  E2C   :   FA;
  E2D   :   FA;
  E2E   :   FA;
  E2F   :   FD;
  E30   :    0;
  E31   :    0;
  E32   :   3F;
  E33   :   C0;
  E34   :    0;
  E35   :    0;
  E36   :    0;
  E37   :    0;
  E38   :   FF;
  E39   :   FF;
  E3A   :   C0;
  E3B   :   3F;
  E3C   :   FF;
  E3D   :   FF;
  E3E   :   FF;
  E3F   :   FF;
  E40   :   18;
  E41   :    8;
  E42   :    8;
  E43   :   C1;
  E44   :   22;
  E45   :   14;
  E46   :   14;
  E47   :    8;
  E48   :   E7;
  E49   :   F7;
  E4A   :   F7;
  E4B   :   3E;
  E4C   :   DD;
  E4D   :   EB;
  E4E   :   EB;
  E4F   :   F7;
  E50   :   E3;
  E51   :    0;
  E52   :   3F;
  E53   :   C0;
  E54   :    0;
  E55   :    0;
  E56   :    0;
  E57   :    0;
  E58   :   1C;
  E59   :   FF;
  E5A   :   C0;
  E5B   :   3F;
  E5C   :   FF;
  E5D   :   FF;
  E5E   :   FF;
  E5F   :   FF;
  E60   :   FF;
  E61   :   3F;
  E62   :   8F;
  E63   :   4F;
  E64   :   2F;
  E65   :   2F;
  E66   :    F;
  E67   :    F;
  E68   :   C0;
  E69   :   F0;
  E6A   :   78;
  E6B   :   B8;
  E6C   :   D8;
  E6D   :   D8;
  E6E   :   F8;
  E6F   :   F8;
  E70   :   C0;
  E71   :   C0;
  E72   :   C0;
  E73   :   C0;
  E74   :   C0;
  E75   :   F0;
  E76   :   F8;
  E77   :   F8;
  E78   :   7F;
  E79   :   7F;
  E7A   :   7F;
  E7B   :   7F;
  E7C   :   7F;
  E7D   :   4F;
  E7E   :   67;
  E7F   :   37;
  E80   :    0;
  E81   :    0;
  E82   :    4;
  E83   :    4;
  E84   :    4;
  E85   :    4;
  E86   :    E;
  E87   :   1F;
  E88   :   FF;
  E89   :   FF;
  E8A   :   FB;
  E8B   :   FB;
  E8C   :   FB;
  E8D   :   FB;
  E8E   :   F1;
  E8F   :   E0;
  E90   :    0;
  E91   :    0;
  E92   :   10;
  E93   :   10;
  E94   :   10;
  E95   :   10;
  E96   :   38;
  E97   :   7C;
  E98   :   FF;
  E99   :   FF;
  E9A   :   EF;
  E9B   :   EF;
  E9C   :   EF;
  E9D   :   EF;
  E9E   :   C7;
  E9F   :   83;
  EA0   :    0;
  EA1   :    0;
  EA2   :    1;
  EA3   :    1;
  EA4   :    1;
  EA5   :    1;
  EA6   :    3;
  EA7   :    7;
  EA8   :   FF;
  EA9   :   FF;
  EAA   :   FE;
  EAB   :   FE;
  EAC   :   FE;
  EAD   :   FE;
  EAE   :   FC;
  EAF   :   F8;
  EB0   :    0;
  EB1   :    0;
  EB2   :    0;
  EB3   :    0;
  EB4   :    0;
  EB5   :    0;
  EB6   :   80;
  EB7   :   C0;
  EB8   :   FF;
  EB9   :   FF;
  EBA   :   FF;
  EBB   :   FF;
  EBC   :   FF;
  EBD   :   FF;
  EBE   :   7F;
  EBF   :   3F;
  EC0   :    8;
  EC1   :    8;
  EC2   :    8;
  EC3   :    8;
  EC4   :   18;
  EC5   :   20;
  EC6   :   40;
  EC7   :   80;
  EC8   :   FF;
  EC9   :   FF;
  ECA   :   FF;
  ECB   :   FF;
  ECC   :   FF;
  ECD   :   FF;
  ECE   :   FF;
  ECF   :   FF;
  ED0   :   10;
  ED1   :   10;
  ED2   :   10;
  ED3   :   10;
  ED4   :   18;
  ED5   :    4;
  ED6   :    2;
  ED7   :    1;
  ED8   :   FF;
  ED9   :   FF;
  EDA   :   FF;
  EDB   :   FF;
  EDC   :   FF;
  EDD   :   FF;
  EDE   :   FF;
  EDF   :   FF;
  EE0   :    0;
  EE1   :    0;
  EE2   :    0;
  EE3   :    0;
  EE4   :    0;
  EE5   :    0;
  EE6   :    0;
  EE7   :    1;
  EE8   :   FF;
  EE9   :   FF;
  EEA   :   FF;
  EEB   :   FF;
  EEC   :   FF;
  EED   :   FF;
  EEE   :   FF;
  EEF   :   FE;
  EF0   :    0;
  EF1   :    0;
  EF2   :   40;
  EF3   :   40;
  EF4   :   40;
  EF5   :   40;
  EF6   :   E0;
  EF7   :   F0;
  EF8   :   FF;
  EF9   :   FF;
  EFA   :   BF;
  EFB   :   BF;
  EFC   :   BF;
  EFD   :   BF;
  EFE   :   1F;
  EFF   :    F;
  F00   :    0;
  F01   :    0;
  F02   :    2;
  F03   :    2;
  F04   :    2;
  F05   :    2;
  F06   :    7;
  F07   :    F;
  F08   :   FF;
  F09   :   FF;
  F0A   :   FD;
  F0B   :   FD;
  F0C   :   FD;
  F0D   :   FD;
  F0E   :   F8;
  F0F   :   F0;
  F10   :    0;
  F11   :    0;
  F12   :    0;
  F13   :    0;
  F14   :    0;
  F15   :    0;
  F16   :    0;
  F17   :   80;
  F18   :   FF;
  F19   :   FF;
  F1A   :   FF;
  F1B   :   FF;
  F1C   :   FF;
  F1D   :   FF;
  F1E   :   FF;
  F1F   :   7F;
  F20   :    0;
  F21   :    0;
  F22   :    8;
  F23   :    8;
  F24   :    8;
  F25   :    8;
  F26   :   1C;
  F27   :   3E;
  F28   :   FF;
  F29   :   FF;
  F2A   :   F7;
  F2B   :   F7;
  F2C   :   F7;
  F2D   :   F7;
  F2E   :   E3;
  F2F   :   C1;
  F30   :   1F;
  F31   :   1F;
  F32   :   1F;
  F33   :   1F;
  F34   :   1F;
  F35   :   1F;
  F36   :   3F;
  F37   :   3F;
  F38   :   F8;
  F39   :   F8;
  F3A   :   F8;
  F3B   :   F8;
  F3C   :   F8;
  F3D   :   F8;
  F3E   :   F0;
  F3F   :   E0;
  F40   :   5F;
  F41   :   B6;
  F42   :   56;
  F43   :   B6;
  F44   :   5F;
  F45   :   B6;
  F46   :   56;
  F47   :   B6;
  F48   :   F0;
  F49   :   F9;
  F4A   :   F9;
  F4B   :   F9;
  F4C   :   F0;
  F4D   :   F9;
  F4E   :   F9;
  F4F   :   F9;
  F50   :   FA;
  F51   :   6D;
  F52   :   6A;
  F53   :   6D;
  F54   :   FA;
  F55   :   6D;
  F56   :   6A;
  F57   :   6D;
  F58   :    F;
  F59   :   9F;
  F5A   :   9F;
  F5B   :   9F;
  F5C   :    F;
  F5D   :   9F;
  F5E   :   9F;
  F5F   :   9F;
  F60   :   FF;
  F61   :    0;
  F62   :    0;
  F63   :   88;
  F64   :   FF;
  F65   :   FF;
  F66   :   88;
  F67   :   FF;
  F68   :   FF;
  F69   :   FF;
  F6A   :   FF;
  F6B   :   77;
  F6C   :    0;
  F6D   :    0;
  F6E   :   77;
  F6F   :   FF;
  F70   :    0;
  F71   :    0;
  F72   :    0;
  F73   :    0;
  F74   :    0;
  F75   :    0;
  F76   :    0;
  F77   :    0;
  F78   :    0;
  F79   :    0;
  F7A   :    0;
  F7B   :    0;
  F7C   :    0;
  F7D   :    0;
  F7E   :    0;
  F7F   :    0;
  F80   :   FF;
  F81   :   FF;
  F82   :   FF;
  F83   :   FF;
  F84   :   FF;
  F85   :   FF;
  F86   :   FF;
  F87   :   FF;
  F88   :    0;
  F89   :   42;
  F8A   :    0;
  F8B   :   18;
  F8C   :   18;
  F8D   :    0;
  F8E   :   42;
  F8F   :    0;
  F90   :    0;
  F91   :    0;
  F92   :    0;
  F93   :    0;
  F94   :    0;
  F95   :    0;
  F96   :    0;
  F97   :    0;
  F98   :    0;
  F99   :    0;
  F9A   :    0;
  F9B   :    0;
  F9C   :    0;
  F9D   :    0;
  F9E   :    0;
  F9F   :    0;
  FA0   :    0;
  FA1   :    0;
  FA2   :    0;
  FA3   :    0;
  FA4   :    0;
  FA5   :    0;
  FA6   :    0;
  FA7   :    0;
  FA8   :    0;
  FA9   :    0;
  FAA   :    0;
  FAB   :    0;
  FAC   :    0;
  FAD   :    0;
  FAE   :    0;
  FAF   :    0;
  FB0   :    0;
  FB1   :    0;
  FB2   :    0;
  FB3   :    0;
  FB4   :    0;
  FB5   :    0;
  FB6   :    0;
  FB7   :    0;
  FB8   :    0;
  FB9   :    0;
  FBA   :    0;
  FBB   :    0;
  FBC   :    0;
  FBD   :    0;
  FBE   :    0;
  FBF   :    0;
  FC0   :    0;
  FC1   :    0;
  FC2   :    0;
  FC3   :    0;
  FC4   :    0;
  FC5   :    0;
  FC6   :    0;
  FC7   :    0;
  FC8   :    0;
  FC9   :    0;
  FCA   :    0;
  FCB   :    0;
  FCC   :    0;
  FCD   :    0;
  FCE   :    0;
  FCF   :    0;
  FD0   :    0;
  FD1   :    0;
  FD2   :    0;
  FD3   :    0;
  FD4   :    0;
  FD5   :    0;
  FD6   :    0;
  FD7   :    0;
  FD8   :    0;
  FD9   :    0;
  FDA   :    0;
  FDB   :    0;
  FDC   :    0;
  FDD   :    0;
  FDE   :    0;
  FDF   :    0;
  FE0   :    0;
  FE1   :    0;
  FE2   :    0;
  FE3   :    0;
  FE4   :    0;
  FE5   :    0;
  FE6   :    0;
  FE7   :    0;
  FE8   :    0;
  FE9   :    0;
  FEA   :    0;
  FEB   :    0;
  FEC   :    0;
  FED   :    0;
  FEE   :    0;
  FEF   :    0;
  FF0   :    0;
  FF1   :    0;
  FF2   :    0;
  FF3   :    0;
  FF4   :    0;
  FF5   :    0;
  FF6   :    0;
  FF7   :    0;
  FF8   :    0;
  FF9   :    0;
  FFA   :    0;
  FFB   :    0;
  FFC   :    0;
  FFD   :    0;
  FFE   :    0;
  FFF   :    0;
 1000   :    0;
 1001   :    0;
 1002   :    0;
 1003   :    0;
 1004   :    0;
 1005   :    0;
 1006   :    0;
 1007   :    0;
 1008   :    0;
 1009   :    0;
 100A   :    0;
 100B   :    0;
 100C   :    0;
 100D   :    0;
 100E   :    0;
 100F   :    0;
 1010   :   38;
 1011   :   6C;
 1012   :   C6;
 1013   :   C6;
 1014   :   FE;
 1015   :   C6;
 1016   :   C6;
 1017   :    0;
 1018   :    0;
 1019   :    0;
 101A   :    0;
 101B   :    0;
 101C   :    0;
 101D   :    0;
 101E   :    0;
 101F   :    0;
 1020   :   FC;
 1021   :   C6;
 1022   :   C6;
 1023   :   FC;
 1024   :   C6;
 1025   :   C6;
 1026   :   FC;
 1027   :    0;
 1028   :    0;
 1029   :    0;
 102A   :    0;
 102B   :    0;
 102C   :    0;
 102D   :    0;
 102E   :    0;
 102F   :    0;
 1030   :   3C;
 1031   :   66;
 1032   :   C0;
 1033   :   C0;
 1034   :   C0;
 1035   :   66;
 1036   :   3C;
 1037   :    0;
 1038   :    0;
 1039   :    0;
 103A   :    0;
 103B   :    0;
 103C   :    0;
 103D   :    0;
 103E   :    0;
 103F   :    0;
 1040   :   F8;
 1041   :   CC;
 1042   :   C6;
 1043   :   C6;
 1044   :   C6;
 1045   :   CC;
 1046   :   F8;
 1047   :    0;
 1048   :    0;
 1049   :    0;
 104A   :    0;
 104B   :    0;
 104C   :    0;
 104D   :    0;
 104E   :    0;
 104F   :    0;
 1050   :   FE;
 1051   :   C0;
 1052   :   C0;
 1053   :   FC;
 1054   :   C0;
 1055   :   C0;
 1056   :   FE;
 1057   :    0;
 1058   :    0;
 1059   :    0;
 105A   :    0;
 105B   :    0;
 105C   :    0;
 105D   :    0;
 105E   :    0;
 105F   :    0;
 1060   :   FE;
 1061   :   C0;
 1062   :   C0;
 1063   :   FC;
 1064   :   C0;
 1065   :   C0;
 1066   :   C0;
 1067   :    0;
 1068   :    0;
 1069   :    0;
 106A   :    0;
 106B   :    0;
 106C   :    0;
 106D   :    0;
 106E   :    0;
 106F   :    0;
 1070   :   3E;
 1071   :   60;
 1072   :   C0;
 1073   :   CE;
 1074   :   C6;
 1075   :   66;
 1076   :   3E;
 1077   :    0;
 1078   :    0;
 1079   :    0;
 107A   :    0;
 107B   :    0;
 107C   :    0;
 107D   :    0;
 107E   :    0;
 107F   :    0;
 1080   :   C6;
 1081   :   C6;
 1082   :   C6;
 1083   :   FE;
 1084   :   C6;
 1085   :   C6;
 1086   :   C6;
 1087   :    0;
 1088   :    0;
 1089   :    0;
 108A   :    0;
 108B   :    0;
 108C   :    0;
 108D   :    0;
 108E   :    0;
 108F   :    0;
 1090   :   7E;
 1091   :   18;
 1092   :   18;
 1093   :   18;
 1094   :   18;
 1095   :   18;
 1096   :   7E;
 1097   :    0;
 1098   :    0;
 1099   :    0;
 109A   :    0;
 109B   :    0;
 109C   :    0;
 109D   :    0;
 109E   :    0;
 109F   :    0;
 10A0   :   1E;
 10A1   :    6;
 10A2   :    6;
 10A3   :    6;
 10A4   :   C6;
 10A5   :   C6;
 10A6   :   7C;
 10A7   :    0;
 10A8   :    0;
 10A9   :    0;
 10AA   :    0;
 10AB   :    0;
 10AC   :    0;
 10AD   :    0;
 10AE   :    0;
 10AF   :    0;
 10B0   :   C6;
 10B1   :   CC;
 10B2   :   D8;
 10B3   :   F0;
 10B4   :   F8;
 10B5   :   DC;
 10B6   :   CE;
 10B7   :    0;
 10B8   :    0;
 10B9   :    0;
 10BA   :    0;
 10BB   :    0;
 10BC   :    0;
 10BD   :    0;
 10BE   :    0;
 10BF   :    0;
 10C0   :   60;
 10C1   :   60;
 10C2   :   60;
 10C3   :   60;
 10C4   :   60;
 10C5   :   60;
 10C6   :   7E;
 10C7   :    0;
 10C8   :    0;
 10C9   :    0;
 10CA   :    0;
 10CB   :    0;
 10CC   :    0;
 10CD   :    0;
 10CE   :    0;
 10CF   :    0;
 10D0   :   C6;
 10D1   :   EE;
 10D2   :   FE;
 10D3   :   FE;
 10D4   :   D6;
 10D5   :   C6;
 10D6   :   C6;
 10D7   :    0;
 10D8   :    0;
 10D9   :    0;
 10DA   :    0;
 10DB   :    0;
 10DC   :    0;
 10DD   :    0;
 10DE   :    0;
 10DF   :    0;
 10E0   :   C6;
 10E1   :   E6;
 10E2   :   F6;
 10E3   :   FE;
 10E4   :   DE;
 10E5   :   CE;
 10E6   :   C6;
 10E7   :    0;
 10E8   :    0;
 10E9   :    0;
 10EA   :    0;
 10EB   :    0;
 10EC   :    0;
 10ED   :    0;
 10EE   :    0;
 10EF   :    0;
 10F0   :   7C;
 10F1   :   C6;
 10F2   :   C6;
 10F3   :   C6;
 10F4   :   C6;
 10F5   :   C6;
 10F6   :   7C;
 10F7   :    0;
 10F8   :    0;
 10F9   :    0;
 10FA   :    0;
 10FB   :    0;
 10FC   :    0;
 10FD   :    0;
 10FE   :    0;
 10FF   :    0;
 1100   :   FC;
 1101   :   C6;
 1102   :   C6;
 1103   :   C6;
 1104   :   FC;
 1105   :   C0;
 1106   :   C0;
 1107   :    0;
 1108   :    0;
 1109   :    0;
 110A   :    0;
 110B   :    0;
 110C   :    0;
 110D   :    0;
 110E   :    0;
 110F   :    0;
 1110   :   7C;
 1111   :   C6;
 1112   :   C6;
 1113   :   C6;
 1114   :   DE;
 1115   :   CC;
 1116   :   7A;
 1117   :    0;
 1118   :    0;
 1119   :    0;
 111A   :    0;
 111B   :    0;
 111C   :    0;
 111D   :    0;
 111E   :    0;
 111F   :    0;
 1120   :   FC;
 1121   :   C6;
 1122   :   C6;
 1123   :   CE;
 1124   :   F8;
 1125   :   DC;
 1126   :   CE;
 1127   :    0;
 1128   :    0;
 1129   :    0;
 112A   :    0;
 112B   :    0;
 112C   :    0;
 112D   :    0;
 112E   :    0;
 112F   :    0;
 1130   :   78;
 1131   :   CC;
 1132   :   C0;
 1133   :   7C;
 1134   :    6;
 1135   :   C6;
 1136   :   7C;
 1137   :    0;
 1138   :    0;
 1139   :    0;
 113A   :    0;
 113B   :    0;
 113C   :    0;
 113D   :    0;
 113E   :    0;
 113F   :    0;
 1140   :   7E;
 1141   :   18;
 1142   :   18;
 1143   :   18;
 1144   :   18;
 1145   :   18;
 1146   :   18;
 1147   :    0;
 1148   :    0;
 1149   :    0;
 114A   :    0;
 114B   :    0;
 114C   :    0;
 114D   :    0;
 114E   :    0;
 114F   :    0;
 1150   :   C6;
 1151   :   C6;
 1152   :   C6;
 1153   :   C6;
 1154   :   C6;
 1155   :   C6;
 1156   :   7C;
 1157   :    0;
 1158   :    0;
 1159   :    0;
 115A   :    0;
 115B   :    0;
 115C   :    0;
 115D   :    0;
 115E   :    0;
 115F   :    0;
 1160   :   C6;
 1161   :   C6;
 1162   :   C6;
 1163   :   EE;
 1164   :   7C;
 1165   :   38;
 1166   :   10;
 1167   :    0;
 1168   :    0;
 1169   :    0;
 116A   :    0;
 116B   :    0;
 116C   :    0;
 116D   :    0;
 116E   :    0;
 116F   :    0;
 1170   :   C6;
 1171   :   C6;
 1172   :   D6;
 1173   :   FE;
 1174   :   FE;
 1175   :   EE;
 1176   :   C6;
 1177   :    0;
 1178   :    0;
 1179   :    0;
 117A   :    0;
 117B   :    0;
 117C   :    0;
 117D   :    0;
 117E   :    0;
 117F   :    0;
 1180   :   C6;
 1181   :   EE;
 1182   :   7C;
 1183   :   38;
 1184   :   7C;
 1185   :   EE;
 1186   :   C6;
 1187   :    0;
 1188   :    0;
 1189   :    0;
 118A   :    0;
 118B   :    0;
 118C   :    0;
 118D   :    0;
 118E   :    0;
 118F   :    0;
 1190   :   66;
 1191   :   66;
 1192   :   66;
 1193   :   3C;
 1194   :   18;
 1195   :   18;
 1196   :   18;
 1197   :    0;
 1198   :    0;
 1199   :    0;
 119A   :    0;
 119B   :    0;
 119C   :    0;
 119D   :    0;
 119E   :    0;
 119F   :    0;
 11A0   :   FE;
 11A1   :    E;
 11A2   :   1C;
 11A3   :   38;
 11A4   :   70;
 11A5   :   E0;
 11A6   :   FE;
 11A7   :    0;
 11A8   :    0;
 11A9   :    0;
 11AA   :    0;
 11AB   :    0;
 11AC   :    0;
 11AD   :    0;
 11AE   :    0;
 11AF   :    0;
 11B0   :   3E;
 11B1   :   30;
 11B2   :   30;
 11B3   :   30;
 11B4   :   30;
 11B5   :   30;
 11B6   :   3E;
 11B7   :    0;
 11B8   :    0;
 11B9   :    0;
 11BA   :    0;
 11BB   :    0;
 11BC   :    0;
 11BD   :    0;
 11BE   :    0;
 11BF   :    0;
 11C0   :    0;
 11C1   :    0;
 11C2   :    0;
 11C3   :    0;
 11C4   :   81;
 11C5   :   CB;
 11C6   :   CF;
 11C7   :   4E;
 11C8   :   18;
 11C9   :   18;
 11CA   :   3C;
 11CB   :   3C;
 11CC   :   24;
 11CD   :   18;
 11CE   :   3C;
 11CF   :   3C;
 11D0   :    C;
 11D1   :    C;
 11D2   :    C;
 11D3   :    8;
 11D4   :    8;
 11D5   :    8;
 11D6   :    0;
 11D7   :    0;
 11D8   :   3C;
 11D9   :   3C;
 11DA   :   3C;
 11DB   :   18;
 11DC   :   18;
 11DD   :    8;
 11DE   :    0;
 11DF   :    0;
 11E0   :    0;
 11E1   :    0;
 11E2   :    0;
 11E3   :    0;
 11E4   :    0;
 11E5   :    0;
 11E6   :    0;
 11E7   :    0;
 11E8   :    0;
 11E9   :    0;
 11EA   :    0;
 11EB   :    0;
 11EC   :    0;
 11ED   :    0;
 11EE   :    0;
 11EF   :    0;
 11F0   :    0;
 11F1   :    0;
 11F2   :    0;
 11F3   :    0;
 11F4   :    0;
 11F5   :    0;
 11F6   :    0;
 11F7   :    0;
 11F8   :    0;
 11F9   :    0;
 11FA   :    0;
 11FB   :    0;
 11FC   :    0;
 11FD   :    0;
 11FE   :    0;
 11FF   :    0;
 1200   :    8;
 1201   :   18;
 1202   :   10;
 1203   :   30;
 1204   :   20;
 1205   :   60;
 1206   :   60;
 1207   :   60;
 1208   :    8;
 1209   :   18;
 120A   :   10;
 120B   :   30;
 120C   :   20;
 120D   :   60;
 120E   :   60;
 120F   :   60;
 1210   :   60;
 1211   :   60;
 1212   :   60;
 1213   :   20;
 1214   :   30;
 1215   :   10;
 1216   :   18;
 1217   :    8;
 1218   :   60;
 1219   :   60;
 121A   :   60;
 121B   :   20;
 121C   :   30;
 121D   :   10;
 121E   :   18;
 121F   :    8;
 1220   :   10;
 1221   :   18;
 1222   :    8;
 1223   :    C;
 1224   :    4;
 1225   :    6;
 1226   :    6;
 1227   :    6;
 1228   :   10;
 1229   :   18;
 122A   :    8;
 122B   :    C;
 122C   :    4;
 122D   :    6;
 122E   :    6;
 122F   :    6;
 1230   :    6;
 1231   :    6;
 1232   :    6;
 1233   :    4;
 1234   :    C;
 1235   :    8;
 1236   :   18;
 1237   :   10;
 1238   :    6;
 1239   :    6;
 123A   :    6;
 123B   :    4;
 123C   :    C;
 123D   :    8;
 123E   :   18;
 123F   :   10;
 1240   :    0;
 1241   :    0;
 1242   :    0;
 1243   :    0;
 1244   :    0;
 1245   :    0;
 1246   :    0;
 1247   :   FF;
 1248   :    0;
 1249   :    0;
 124A   :    0;
 124B   :    0;
 124C   :    0;
 124D   :    0;
 124E   :    0;
 124F   :   FF;
 1250   :    0;
 1251   :    0;
 1252   :    0;
 1253   :    0;
 1254   :    0;
 1255   :    0;
 1256   :   1C;
 1257   :   FE;
 1258   :    0;
 1259   :    0;
 125A   :    0;
 125B   :    0;
 125C   :    0;
 125D   :    0;
 125E   :   1C;
 125F   :   FE;
 1260   :   3E;
 1261   :   7F;
 1262   :   E7;
 1263   :   E7;
 1264   :   E6;
 1265   :   E0;
 1266   :   E0;
 1267   :   EF;
 1268   :   3E;
 1269   :    3;
 126A   :   21;
 126B   :   21;
 126C   :   20;
 126D   :   20;
 126E   :   20;
 126F   :   2F;
 1270   :   FF;
 1271   :   FF;
 1272   :   E7;
 1273   :   E7;
 1274   :   E7;
 1275   :   EF;
 1276   :   FF;
 1277   :   76;
 1278   :   21;
 1279   :   21;
 127A   :   21;
 127B   :   21;
 127C   :   21;
 127D   :   21;
 127E   :   21;
 127F   :    0;
 1280   :    8;
 1281   :   1C;
 1282   :   3E;
 1283   :   6F;
 1284   :   E7;
 1285   :   E7;
 1286   :   E7;
 1287   :   FF;
 1288   :    8;
 1289   :    C;
 128A   :    6;
 128B   :    3;
 128C   :   21;
 128D   :   21;
 128E   :   21;
 128F   :   39;
 1290   :   FF;
 1291   :   FF;
 1292   :   E7;
 1293   :   E7;
 1294   :   E7;
 1295   :   E7;
 1296   :   E7;
 1297   :   C6;
 1298   :    1;
 1299   :    1;
 129A   :   21;
 129B   :   21;
 129C   :   21;
 129D   :   21;
 129E   :   21;
 129F   :    0;
 12A0   :   41;
 12A1   :   E3;
 12A2   :   F7;
 12A3   :   FF;
 12A4   :   FF;
 12A5   :   F7;
 12A6   :   E7;
 12A7   :   E7;
 12A8   :   41;
 12A9   :   61;
 12AA   :   31;
 12AB   :   11;
 12AC   :    1;
 12AD   :   21;
 12AE   :   21;
 12AF   :   21;
 12B0   :   E7;
 12B1   :   E7;
 12B2   :   E7;
 12B3   :   E7;
 12B4   :   E7;
 12B5   :   E7;
 12B6   :   E7;
 12B7   :   C6;
 12B8   :   21;
 12B9   :   21;
 12BA   :   21;
 12BB   :   21;
 12BC   :   21;
 12BD   :   21;
 12BE   :   21;
 12BF   :    0;
 12C0   :   7F;
 12C1   :   FF;
 12C2   :   FE;
 12C3   :   E0;
 12C4   :   E0;
 12C5   :   E0;
 12C6   :   FC;
 12C7   :   FC;
 12C8   :   7F;
 12C9   :    1;
 12CA   :    0;
 12CB   :   20;
 12CC   :   20;
 12CD   :   20;
 12CE   :   3C;
 12CF   :    4;
 12D0   :   F8;
 12D1   :   E0;
 12D2   :   E0;
 12D3   :   E0;
 12D4   :   E0;
 12D5   :   FF;
 12D6   :   FF;
 12D7   :   FE;
 12D8   :    0;
 12D9   :   20;
 12DA   :   20;
 12DB   :   20;
 12DC   :   20;
 12DD   :   3F;
 12DE   :    1;
 12DF   :    0;
 12E0   :    0;
 12E1   :    0;
 12E2   :    0;
 12E3   :    0;
 12E4   :    0;
 12E5   :   60;
 12E6   :   60;
 12E7   :    0;
 12E8   :    0;
 12E9   :    0;
 12EA   :    0;
 12EB   :    0;
 12EC   :    0;
 12ED   :    0;
 12EE   :    0;
 12EF   :    0;
 12F0   :    0;
 12F1   :    0;
 12F2   :    0;
 12F3   :    0;
 12F4   :    0;
 12F5   :    0;
 12F6   :    0;
 12F7   :    0;
 12F8   :    0;
 12F9   :    0;
 12FA   :    0;
 12FB   :    0;
 12FC   :    0;
 12FD   :    0;
 12FE   :    0;
 12FF   :    0;
 1300   :   38;
 1301   :   4C;
 1302   :   C6;
 1303   :   C6;
 1304   :   C6;
 1305   :   64;
 1306   :   38;
 1307   :    0;
 1308   :    0;
 1309   :    0;
 130A   :    0;
 130B   :    0;
 130C   :    0;
 130D   :    0;
 130E   :    0;
 130F   :    0;
 1310   :   18;
 1311   :   38;
 1312   :   18;
 1313   :   18;
 1314   :   18;
 1315   :   18;
 1316   :   7E;
 1317   :    0;
 1318   :    0;
 1319   :    0;
 131A   :    0;
 131B   :    0;
 131C   :    0;
 131D   :    0;
 131E   :    0;
 131F   :    0;
 1320   :   7C;
 1321   :   C6;
 1322   :    E;
 1323   :   3C;
 1324   :   78;
 1325   :   E0;
 1326   :   FE;
 1327   :    0;
 1328   :    0;
 1329   :    0;
 132A   :    0;
 132B   :    0;
 132C   :    0;
 132D   :    0;
 132E   :    0;
 132F   :    0;
 1330   :   7E;
 1331   :    C;
 1332   :   18;
 1333   :   3C;
 1334   :    6;
 1335   :   C6;
 1336   :   7C;
 1337   :    0;
 1338   :    0;
 1339   :    0;
 133A   :    0;
 133B   :    0;
 133C   :    0;
 133D   :    0;
 133E   :    0;
 133F   :    0;
 1340   :   1C;
 1341   :   3C;
 1342   :   6C;
 1343   :   CC;
 1344   :   FE;
 1345   :    C;
 1346   :    C;
 1347   :    0;
 1348   :    0;
 1349   :    0;
 134A   :    0;
 134B   :    0;
 134C   :    0;
[...]
 3B1F   :    0;
 3B20   :    0;
 3B21   :    0;
 3B22   :    0;
 3B23   :    0;
 3B24   :    0;
 3B25   :    0;
 3B26   :    0;
 3B27   :    0;
 3B28   :    0;
 3B29   :    0;
 3B2A   :    0;
 3B2B   :    0;
 3B2C   :    0;
 3B2D   :    0;
 3B2E   :    0;
 3B2F   :    0;
 3B30   :    0;
 3B31   :    0;
 3B32   :    0;
 3B33   :    0;
 3B34   :    0;
 3B35   :    0;
 3B36   :    0;
 3B37   :    0;
 3B38   :    0;
 3B39   :    0;
 3B3A   :    0;
 3B3B   :    0;
 3B3C   :    0;
 3B3D   :    0;
 3B3E   :    0;
 3B3F   :    0;
 3B40   :    0;
 3B41   :    0;
 3B42   :    0;
 3B43   :    0;
 3B44   :    0;
 3B45   :    0;
 3B46   :    0;
 3B47   :    0;
 3B48   :    0;
 3B49   :    0;
 3B4A   :    0;
 3B4B   :    0;
 3B4C   :    0;
 3B4D   :    0;
 3B4E   :    0;
 3B4F   :    0;
 3B50   :    0;
 3B51   :    0;
 3B52   :    0;
 3B53   :    0;
 3B54   :    0;
 3B55   :    0;
 3B56   :    0;
 3B57   :    0;
 3B58   :    0;
 3B59   :    0;
 3B5A   :    0;
 3B5B   :    0;
 3B5C   :    0;
 3B5D   :    0;
 3B5E   :    0;
 3B5F   :    0;
 3B60   :    0;
 3B61   :    0;
 3B62   :    0;
 3B63   :    0;
 3B64   :    0;
 3B65   :    0;
 3B66   :    0;
 3B67   :    0;
 3B68   :    0;
 3B69   :    0;
 3B6A   :    0;
 3B6B   :    0;
 3B6C   :    0;
 3B6D   :    0;
 3B6E   :    0;
 3B6F   :    0;
 3B70   :    0;
 3B71   :    0;
 3B72   :    0;
 3B73   :    0;
 3B74   :    0;
 3B75   :    0;
 3B76   :    0;
 3B77   :    0;
 3B78   :    0;
 3B79   :    0;
 3B7A   :    0;
 3B7B   :    0;
 3B7C   :    0;
 3B7D   :    0;
 3B7E   :    0;
 3B7F   :    0;
 3B80   :    0;
 3B81   :    0;
 3B82   :    0;
 3B83   :    0;
 3B84   :    0;
 3B85   :    0;
 3B86   :    0;
 3B87   :    0;
 3B88   :    0;
 3B89   :    0;
 3B8A   :    0;
 3B8B   :    0;
 3B8C   :    0;
 3B8D   :    0;
 3B8E   :    0;
 3B8F   :    0;
 3B90   :    0;
 3B91   :    0;
 3B92   :    0;
 3B93   :    0;
 3B94   :    0;
 3B95   :    0;
 3B96   :    0;
 3B97   :    0;
 3B98   :    0;
 3B99   :    0;
 3B9A   :    0;
 3B9B   :    0;
 3B9C   :    0;
 3B9D   :    0;
 3B9E   :    0;
 3B9F   :    0;
 3BA0   :    0;
 3BA1   :    0;
 3BA2   :    0;
 3BA3   :    0;
 3BA4   :    0;
 3BA5   :    0;
 3BA6   :    0;
 3BA7   :    0;
 3BA8   :    0;
 3BA9   :    0;
 3BAA   :    0;
 3BAB   :    0;
 3BAC   :    0;
 3BAD   :    0;
 3BAE   :    0;
 3BAF   :    0;
 3BB0   :    0;
 3BB1   :    0;
 3BB2   :    0;
 3BB3   :    0;
 3BB4   :    0;
 3BB5   :    0;
 3BB6   :    0;
 3BB7   :    0;
 3BB8   :    0;
 3BB9   :    0;
 3BBA   :    0;
 3BBB   :    0;
 3BBC   :    0;
 3BBD   :    0;
 3BBE   :    0;
 3BBF   :    0;
 3BC0   :    0;
 3BC1   :    0;
 3BC2   :    0;
 3BC3   :    0;
 3BC4   :    0;
 3BC5   :    0;
 3BC6   :    0;
 3BC7   :    0;
 3BC8   :    0;
 3BC9   :    0;
 3BCA   :    0;
 3BCB   :    0;
 3BCC   :    0;
 3BCD   :    0;
 3BCE   :    0;
 3BCF   :    0;
 3BD0   :    0;
 3BD1   :    0;
 3BD2   :    0;
 3BD3   :    0;
 3BD4   :    0;
 3BD5   :    0;
 3BD6   :    0;
 3BD7   :    0;
 3BD8   :    0;
 3BD9   :    0;
 3BDA   :    0;
 3BDB   :    0;
 3BDC   :    0;
 3BDD   :    0;
 3BDE   :    0;
 3BDF   :    0;
 3BE0   :    0;
 3BE1   :    0;
 3BE2   :    0;
 3BE3   :    0;
 3BE4   :    0;
 3BE5   :    0;
 3BE6   :    0;
 3BE7   :    0;
 3BE8   :    0;
 3BE9   :    0;
 3BEA   :    0;
 3BEB   :    0;
 3BEC   :    0;
 3BED   :    0;
 3BEE   :    0;
 3BEF   :    0;
 3BF0   :    0;
 3BF1   :    0;
 3BF2   :    0;
 3BF3   :    0;
 3BF4   :    0;
 3BF5   :    0;
 3BF6   :    0;
 3BF7   :    0;
 3BF8   :    0;
 3BF9   :    0;
 3BFA   :    0;
 3BFB   :    0;
 3BFC   :    0;
 3BFD   :    0;
 3BFE   :    0;
 3BFF   :    0;
 3C00   :    0;
 3C01   :    0;
 3C02   :    0;
 3C03   :    0;
 3C04   :    0;
 3C05   :    0;
 3C06   :    0;
 3C07   :    0;
 3C08   :    0;
 3C09   :    0;
 3C0A   :    0;
 3C0B   :    0;
 3C0C   :    0;
 3C0D   :    0;
 3C0E   :    0;
 3C0F   :    0;
 3C10   :    0;
 3C11   :    0;
 3C12   :    0;
 3C13   :    0;
 3C14   :    0;
 3C15   :    0;
 3C16   :    0;
 3C17   :    0;
 3C18   :    0;
 3C19   :    0;
 3C1A   :    0;
 3C1B   :    0;
 3C1C   :    0;
 3C1D   :    0;
 3C1E   :    0;
 3C1F   :    0;
 3C20   :    0;
 3C21   :    0;
 3C22   :    0;
 3C23   :    0;
 3C24   :    0;
 3C25   :    0;
 3C26   :    0;
 3C27   :    0;
 3C28   :    0;
 3C29   :    0;
 3C2A   :    0;
 3C2B   :    0;
 3C2C   :    0;
 3C2D   :    0;
 3C2E   :    0;
 3C2F   :    0;
 3C30   :    0;
 3C31   :    0;
 3C32   :    0;
 3C33   :    0;
 3C34   :    0;
 3C35   :    0;
 3C36   :    0;
 3C37   :    0;
 3C38   :    0;
 3C39   :    0;
 3C3A   :    0;
 3C3B   :    0;
 3C3C   :    0;
 3C3D   :    0;
 3C3E   :    0;
 3C3F   :    0;
 3C40   :    0;
 3C41   :    0;
 3C42   :    0;
 3C43   :    0;
 3C44   :    0;
 3C45   :    0;
 3C46   :    0;
 3C47   :    0;
 3C48   :    0;
 3C49   :    0;
 3C4A   :    0;
 3C4B   :    0;
 3C4C   :    0;
 3C4D   :    0;
 3C4E   :    0;
 3C4F   :    0;
 3C50   :    0;
 3C51   :    0;
 3C52   :    0;
 3C53   :    0;
 3C54   :    0;
 3C55   :    0;
 3C56   :    0;
 3C57   :    0;
 3C58   :    0;
 3C59   :    0;
 3C5A   :    0;
 3C5B   :    0;
 3C5C   :    0;
 3C5D   :    0;
 3C5E   :    0;
 3C5F   :    0;
 3C60   :    0;
 3C61   :    0;
 3C62   :    0;
 3C63   :    0;
 3C64   :    0;
 3C65   :    0;
 3C66   :    0;
 3C67   :    0;
 3C68   :    0;
 3C69   :    0;
 3C6A   :    0;
 3C6B   :    0;
 3C6C   :    0;
 3C6D   :    0;
 3C6E   :    0;
 3C6F   :    0;
 3C70   :    0;
 3C71   :    0;
 3C72   :    0;
 3C73   :    0;
 3C74   :    0;
 3C75   :    0;
 3C76   :    0;
 3C77   :    0;
 3C78   :    0;
 3C79   :    0;
 3C7A   :    0;
 3C7B   :    0;
 3C7C   :    0;
 3C7D   :    0;
 3C7E   :    0;
 3C7F   :    0;
 3C80   :    0;
 3C81   :    0;
 3C82   :    0;
 3C83   :    0;
 3C84   :    0;
 3C85   :    0;
 3C86   :    0;
 3C87   :    0;
 3C88   :    0;
 3C89   :    0;
 3C8A   :    0;
 3C8B   :    0;
 3C8C   :    0;
 3C8D   :    0;
 3C8E   :    0;
 3C8F   :    0;
 3C90   :    0;
 3C91   :    0;
 3C92   :    0;
 3C93   :    0;
 3C94   :    0;
 3C95   :    0;
 3C96   :    0;
 3C97   :    0;
 3C98   :    0;
 3C99   :    0;
 3C9A   :    0;
 3C9B   :    0;
 3C9C   :    0;
 3C9D   :    0;
 3C9E   :    0;
 3C9F   :    0;
 3CA0   :    0;
 3CA1   :    0;
 3CA2   :    0;
 3CA3   :    0;
 3CA4   :    0;
 3CA5   :    0;
 3CA6   :    0;
 3CA7   :    0;
 3CA8   :    0;
 3CA9   :    0;
 3CAA   :    0;
 3CAB   :    0;
 3CAC   :    0;
 3CAD   :    0;
 3CAE   :    0;
 3CAF   :    0;
 3CB0   :    0;
 3CB1   :    0;
 3CB2   :    0;
 3CB3   :    0;
 3CB4   :    0;
 3CB5   :    0;
 3CB6   :    0;
 3CB7   :    0;
 3CB8   :    0;
 3CB9   :    0;
 3CBA   :    0;
 3CBB   :    0;
 3CBC   :    0;
 3CBD   :    0;
 3CBE   :    0;
 3CBF   :    0;
 3CC0   :    0;
 3CC1   :    0;
 3CC2   :    0;
 3CC3   :    0;
 3CC4   :    0;
 3CC5   :    0;
 3CC6   :    0;
 3CC7   :    0;
 3CC8   :    0;
 3CC9   :    0;
 3CCA   :    0;
 3CCB   :    0;
 3CCC   :    0;
 3CCD   :    0;
 3CCE   :    0;
 3CCF   :    0;
 3CD0   :    0;
 3CD1   :    0;
 3CD2   :    0;
 3CD3   :    0;
 3CD4   :    0;
 3CD5   :    0;
 3CD6   :    0;
 3CD7   :    0;
 3CD8   :    0;
 3CD9   :    0;
 3CDA   :    0;
 3CDB   :    0;
 3CDC   :    0;
 3CDD   :    0;
 3CDE   :    0;
 3CDF   :    0;
 3CE0   :    0;
 3CE1   :    0;
 3CE2   :    0;
 3CE3   :    0;
 3CE4   :    0;
 3CE5   :    0;
 3CE6   :    0;
 3CE7   :    0;
 3CE8   :    0;
 3CE9   :    0;
 3CEA   :    0;
 3CEB   :    0;
 3CEC   :    0;
 3CED   :    0;
 3CEE   :    0;
 3CEF   :    0;
 3CF0   :    0;
 3CF1   :    0;
 3CF2   :    0;
 3CF3   :    0;
 3CF4   :    0;
 3CF5   :    0;
 3CF6   :    0;
 3CF7   :    0;
 3CF8   :    0;
 3CF9   :    0;
 3CFA   :    0;
 3CFB   :    0;
 3CFC   :    0;
 3CFD   :    0;
 3CFE   :    0;
 3CFF   :    0;
 3D00   :    0;
 3D01   :    0;
 3D02   :    0;
 3D03   :    0;
 3D04   :    0;
 3D05   :    0;
 3D06   :    0;
 3D07   :    0;
 3D08   :    0;
 3D09   :    0;
 3D0A   :    0;
 3D0B   :    0;
 3D0C   :    0;
 3D0D   :    0;
 3D0E   :    0;
 3D0F   :    0;
 3D10   :    0;
 3D11   :    0;
 3D12   :    0;
 3D13   :    0;
 3D14   :    0;
 3D15   :    0;
 3D16   :    0;
 3D17   :    0;
 3D18   :    0;
 3D19   :    0;
 3D1A   :    0;
 3D1B   :    0;
 3D1C   :    0;
 3D1D   :    0;
 3D1E   :    0;
 3D1F   :    0;
 3D20   :    0;
 3D21   :    0;
 3D22   :    0;
 3D23   :    0;
 3D24   :    0;
 3D25   :    0;
 3D26   :    0;
 3D27   :    0;
 3D28   :    0;
 3D29   :    0;
 3D2A   :    0;
 3D2B   :    0;
 3D2C   :    0;
 3D2D   :    0;
 3D2E   :    0;
 3D2F   :    0;
 3D30   :    0;
 3D31   :    0;
 3D32   :    0;
 3D33   :    0;
 3D34   :    0;
 3D35   :    0;
 3D36   :    0;
 3D37   :    0;
 3D38   :    0;
 3D39   :    0;
 3D3A   :    0;
 3D3B   :    0;
 3D3C   :    0;
 3D3D   :    0;
 3D3E   :    0;
 3D3F   :    0;
 3D40   :    0;
 3D41   :    0;
 3D42   :    0;
 3D43   :    0;
 3D44   :    0;
 3D45   :    0;
 3D46   :    0;
 3D47   :    0;
 3D48   :    0;
 3D49   :    0;
 3D4A   :    0;
 3D4B   :    0;
 3D4C   :    0;
 3D4D   :    0;
 3D4E   :    0;
 3D4F   :    0;
 3D50   :    0;
 3D51   :    0;
 3D52   :    0;
 3D53   :    0;
 3D54   :    0;
 3D55   :    0;
 3D56   :    0;
 3D57   :    0;
 3D58   :    0;
 3D59   :    0;
 3D5A   :    0;
 3D5B   :    0;
 3D5C   :    0;
 3D5D   :    0;
 3D5E   :    0;
 3D5F   :    0;
 3D60   :    0;
 3D61   :    0;
 3D62   :    0;
 3D63   :    0;
 3D64   :    0;
 3D65   :    0;
 3D66   :    0;
 3D67   :    0;
 3D68   :    0;
 3D69   :    0;
 3D6A   :    0;
 3D6B   :    0;
 3D6C   :    0;
 3D6D   :    0;
 3D6E   :    0;
 3D6F   :    0;
 3D70   :    0;
 3D71   :    0;
 3D72   :    0;
 3D73   :    0;
 3D74   :    0;
 3D75   :    0;
 3D76   :    0;
 3D77   :    0;
 3D78   :    0;
 3D79   :    0;
 3D7A   :    0;
 3D7B   :    0;
 3D7C   :    0;
 3D7D   :    0;
 3D7E   :    0;
 3D7F   :    0;
 3D80   :    0;
 3D81   :    0;
 3D82   :    0;
 3D83   :    0;
 3D84   :    0;
 3D85   :    0;
 3D86   :    0;
 3D87   :    0;
 3D88   :    0;
 3D89   :    0;
 3D8A   :    0;
 3D8B   :    0;
 3D8C   :    0;
 3D8D   :    0;
 3D8E   :    0;
 3D8F   :    0;
 3D90   :    0;
 3D91   :    0;
 3D92   :    0;
 3D93   :    0;
 3D94   :    0;
 3D95   :    0;
 3D96   :    0;
 3D97   :    0;
 3D98   :    0;
 3D99   :    0;
 3D9A   :    0;
 3D9B   :    0;
 3D9C   :    0;
 3D9D   :    0;
 3D9E   :    0;
 3D9F   :    0;
 3DA0   :    0;
 3DA1   :    0;
 3DA2   :    0;
 3DA3   :    0;
 3DA4   :    0;
 3DA5   :    0;
 3DA6   :    0;
 3DA7   :    0;
 3DA8   :    0;
 3DA9   :    0;
 3DAA   :    0;
 3DAB   :    0;
 3DAC   :    0;
 3DAD   :    0;
 3DAE   :    0;
 3DAF   :    0;
 3DB0   :    0;
 3DB1   :    0;
 3DB2   :    0;
 3DB3   :    0;
 3DB4   :    0;
 3DB5   :    0;
 3DB6   :    0;
 3DB7   :    0;
 3DB8   :    0;
 3DB9   :    0;
 3DBA   :    0;
 3DBB   :    0;
 3DBC   :    0;
 3DBD   :    0;
 3DBE   :    0;
 3DBF   :    0;
 3DC0   :    0;
 3DC1   :    0;
 3DC2   :    0;
 3DC3   :    0;
 3DC4   :    0;
 3DC5   :    0;
 3DC6   :    0;
 3DC7   :    0;
 3DC8   :    0;
 3DC9   :    0;
 3DCA   :    0;
 3DCB   :    0;
 3DCC   :    0;
 3DCD   :    0;
 3DCE   :    0;
 3DCF   :    0;
 3DD0   :    0;
 3DD1   :    0;
 3DD2   :    0;
 3DD3   :    0;
 3DD4   :    0;
 3DD5   :    0;
 3DD6   :    0;
 3DD7   :    0;
 3DD8   :    0;
 3DD9   :    0;
 3DDA   :    0;
 3DDB   :    0;
 3DDC   :    0;
 3DDD   :    0;
 3DDE   :    0;
 3DDF   :    0;
 3DE0   :    0;
 3DE1   :    0;
 3DE2   :    0;
 3DE3   :    0;
 3DE4   :    0;
 3DE5   :    0;
 3DE6   :    0;
 3DE7   :    0;
 3DE8   :    0;
 3DE9   :    0;
 3DEA   :    0;
 3DEB   :    0;
 3DEC   :    0;
 3DED   :    0;
 3DEE   :    0;
 3DEF   :    0;
 3DF0   :    0;
 3DF1   :    0;
 3DF2   :    0;
 3DF3   :    0;
 3DF4   :    0;
 3DF5   :    0;
 3DF6   :    0;
 3DF7   :    0;
 3DF8   :    0;
 3DF9   :    0;
 3DFA   :    0;
 3DFB   :    0;
 3DFC   :    0;
 3DFD   :    0;
 3DFE   :    0;
 3DFF   :    0;
 3E00   :    0;
 3E01   :    0;
 3E02   :    0;
 3E03   :    0;
 3E04   :    0;
 3E05   :    0;
 3E06   :    0;
 3E07   :    0;
 3E08   :    0;
 3E09   :    0;
 3E0A   :    0;
 3E0B   :    0;
 3E0C   :    0;
 3E0D   :    0;
 3E0E   :    0;
 3E0F   :    0;
 3E10   :    0;
 3E11   :    0;
 3E12   :    0;
 3E13   :    0;
 3E14   :    0;
 3E15   :    0;
 3E16   :    0;
 3E17   :    0;
 3E18   :    0;
 3E19   :    0;
 3E1A   :    0;
 3E1B   :    0;
 3E1C   :    0;
 3E1D   :    0;
 3E1E   :    0;
 3E1F   :    0;
 3E20   :    0;
 3E21   :    0;
 3E22   :    0;
 3E23   :    0;
 3E24   :    0;
 3E25   :    0;
 3E26   :    0;
 3E27   :    0;
 3E28   :    0;
 3E29   :    0;
 3E2A   :    0;
 3E2B   :    0;
 3E2C   :    0;
 3E2D   :    0;
 3E2E   :    0;
 3E2F   :    0;
 3E30   :    0;
 3E31   :    0;
 3E32   :    0;
 3E33   :    0;
 3E34   :    0;
 3E35   :    0;
 3E36   :    0;
 3E37   :    0;
 3E38   :    0;
 3E39   :    0;
 3E3A   :    0;
 3E3B   :    0;
 3E3C   :    0;
 3E3D   :    0;
 3E3E   :    0;
 3E3F   :    0;
 3E40   :    0;
 3E41   :    0;
 3E42   :    0;
 3E43   :    0;
 3E44   :    0;
 3E45   :    0;
 3E46   :    0;
 3E47   :    0;
 3E48   :    0;
 3E49   :    0;
 3E4A   :    0;
 3E4B   :    0;
 3E4C   :    0;
 3E4D   :    0;
 3E4E   :    0;
 3E4F   :    0;
 3E50   :    0;
 3E51   :    0;
 3E52   :    0;
 3E53   :    0;
 3E54   :    0;
 3E55   :    0;
 3E56   :    0;
 3E57   :    0;
 3E58   :    0;
 3E59   :    0;
 3E5A   :    0;
 3E5B   :    0;
 3E5C   :    0;
 3E5D   :    0;
 3E5E   :    0;
 3E5F   :    0;
 3E60   :    0;
 3E61   :    0;
 3E62   :    0;
 3E63   :    0;
 3E64   :    0;
 3E65   :    0;
 3E66   :    0;
 3E67   :    0;
 3E68   :    0;
 3E69   :    0;
 3E6A   :    0;
 3E6B   :    0;
 3E6C   :    0;
 3E6D   :    0;
 3E6E   :    0;
 3E6F   :    0;
 3E70   :    0;
 3E71   :    0;
 3E72   :    0;
 3E73   :    0;
 3E74   :    0;
 3E75   :    0;
 3E76   :    0;
 3E77   :    0;
 3E78   :    0;
 3E79   :    0;
 3E7A   :    0;
 3E7B   :    0;
 3E7C   :    0;
 3E7D   :    0;
 3E7E   :    0;
 3E7F   :    0;
 3E80   :    0;
 3E81   :    0;
 3E82   :    0;
 3E83   :    0;
 3E84   :    0;
 3E85   :    0;
 3E86   :    0;
 3E87   :    0;
 3E88   :    0;
 3E89   :    0;
 3E8A   :    0;
 3E8B   :    0;
 3E8C   :    0;
 3E8D   :    0;
 3E8E   :    0;
 3E8F   :    0;
 3E90   :    0;
 3E91   :    0;
 3E92   :    0;
 3E93   :    0;
 3E94   :    0;
 3E95   :    0;
 3E96   :    0;
 3E97   :    0;
 3E98   :    0;
 3E99   :    0;
 3E9A   :    0;
 3E9B   :    0;
 3E9C   :    0;
 3E9D   :    0;
 3E9E   :    0;
 3E9F   :    0;
 3EA0   :    0;
 3EA1   :    0;
 3EA2   :    0;
 3EA3   :    0;
 3EA4   :    0;
 3EA5   :    0;
 3EA6   :    0;
 3EA7   :    0;
 3EA8   :    0;
 3EA9   :    0;
 3EAA   :    0;
 3EAB   :    0;
 3EAC   :    0;
 3EAD   :    0;
 3EAE   :    0;
 3EAF   :    0;
 3EB0   :    0;
 3EB1   :    0;
 3EB2   :    0;
 3EB3   :    0;
 3EB4   :    0;
 3EB5   :    0;
 3EB6   :    0;
 3EB7   :    0;
 3EB8   :    0;
 3EB9   :    0;
 3EBA   :    0;
 3EBB   :    0;
 3EBC   :    0;
 3EBD   :    0;
 3EBE   :    0;
 3EBF   :    0;
 3EC0   :    0;
 3EC1   :    0;
 3EC2   :    0;
 3EC3   :    0;
 3EC4   :    0;
 3EC5   :    0;
 3EC6   :    0;
 3EC7   :    0;
 3EC8   :    0;
 3EC9   :    0;
 3ECA   :    0;
 3ECB   :    0;
 3ECC   :    0;
 3ECD   :    0;
 3ECE   :    0;
 3ECF   :    0;
 3ED0   :    0;
 3ED1   :    0;
 3ED2   :    0;
 3ED3   :    0;
 3ED4   :    0;
 3ED5   :    0;
 3ED6   :    0;
 3ED7   :    0;
 3ED8   :    0;
 3ED9   :    0;
 3EDA   :    0;
 3EDB   :    0;
 3EDC   :    0;
 3EDD   :    0;
 3EDE   :    0;
 3EDF   :    0;
 3EE0   :    0;
 3EE1   :    0;
 3EE2   :    0;
 3EE3   :    0;
 3EE4   :    0;
 3EE5   :    0;
 3EE6   :    0;
 3EE7   :    0;
 3EE8   :    0;
 3EE9   :    0;
 3EEA   :    0;
 3EEB   :    0;
 3EEC   :    0;
 3EED   :    0;
 3EEE   :    0;
 3EEF   :    0;
 3EF0   :    0;
 3EF1   :    0;
 3EF2   :    0;
 3EF3   :    0;
 3EF4   :    0;
 3EF5   :    0;
 3EF6   :    0;
 3EF7   :    0;
 3EF8   :    0;
 3EF9   :    0;
 3EFA   :    0;
 3EFB   :    0;
 3EFC   :    0;
 3EFD   :    0;
 3EFE   :    0;
 3EFF   :    0;
 3F00   :   22;
 3F01   :   26;
 3F02   :   17;
 3F03   :    6;
 3F04   :   22;
 3F05   :   28;
 3F06   :   18;
 3F07   :   3F;
 3F08   :   22;
 3F09   :   2F;
 3F0A   :   12;
 3F0B   :   32;
 3F0C   :   22;
 3F0D   :   1A;
 3F0E   :   21;
 3F0F   :   20;
 3F10   :    0;
 3F11   :    0;
 3F12   :   10;
 3F13   :   30;
 3F14   :    0;
 3F15   :   2A;
 3F16   :   1A;
 3F17   :   3A;
 3F18   :    0;
 3F19   :   26;
 3F1A   :   16;
 3F1B   :   36;
 3F1C   :    0;
 3F1D   :   21;
 3F1E   :   21;
 3F1F   :   20;
 3F20   :   22;
 3F21   :   26;
 3F22   :   17;
 3F23   :    6;
 3F24   :   22;
 3F25   :   28;
 3F26   :   18;
 3F27   :   3F;
 3F28   :   22;
 3F29   :   2F;
 3F2A   :   12;
 3F2B   :   32;
 3F2C   :   22;
 3F2D   :   1A;
 3F2E   :   21;
 3F2F   :   20;
 3F30   :    0;
 3F31   :    0;
 3F32   :   10;
 3F33   :   30;
 3F34   :    0;
 3F35   :   2A;
 3F36   :   1A;
 3F37   :   3A;
 3F38   :    0;
 3F39   :   26;
 3F3A   :   16;
 3F3B   :   36;
 3F3C   :    0;
 3F3D   :   21;
 3F3E   :   21;
 3F3F   :   20;
 3F40   :   22;
 3F41   :   26;
 3F42   :   17;
 3F43   :    6;
 3F44   :   22;
 3F45   :   28;
 3F46   :   18;
 3F47   :   3F;
 3F48   :   22;
 3F49   :   2F;
 3F4A   :   12;
 3F4B   :   32;
 3F4C   :   22;
 3F4D   :   1A;
 3F4E   :   21;
 3F4F   :   20;
 3F50   :    0;
 3F51   :    0;
 3F52   :   10;
 3F53   :   30;
 3F54   :    0;
 3F55   :   2A;
 3F56   :   1A;
 3F57   :   3A;
 3F58   :    0;
 3F59   :   26;
 3F5A   :   16;
 3F5B   :   36;
 3F5C   :    0;
 3F5D   :   21;
 3F5E   :   21;
 3F5F   :   20;
 3F60   :   22;
 3F61   :   26;
 3F62   :   17;
 3F63   :    6;
 3F64   :   22;
 3F65   :   28;
 3F66   :   18;
 3F67   :   3F;
 3F68   :   22;
 3F69   :   2F;
 3F6A   :   12;
 3F6B   :   32;
 3F6C   :   22;
 3F6D   :   1A;
 3F6E   :   21;
 3F6F   :   20;
 3F70   :    0;
 3F71   :    0;
 3F72   :   10;
 3F73   :   30;
 3F74   :    0;
 3F75   :   2A;
 3F76   :   1A;
 3F77   :   3A;
 3F78   :    0;
 3F79   :   26;
 3F7A   :   16;
 3F7B   :   36;
 3F7C   :    0;
 3F7D   :   21;
 3F7E   :   21;
 3F7F   :   20;
 3F80   :   22;
 3F81   :   26;
 3F82   :   17;
 3F83   :    6;
 3F84   :   22;
 3F85   :   28;
 3F86   :   18;
 3F87   :   3F;
 3F88   :   22;
 3F89   :   2F;
 3F8A   :   12;
 3F8B   :   32;
 3F8C   :   22;
 3F8D   :   1A;
 3F8E   :   21;
 3F8F   :   20;
 3F90   :    0;
 3F91   :    0;
 3F92   :   10;
 3F93   :   30;
 3F94   :    0;
 3F95   :   2A;
 3F96   :   1A;
 3F97   :   3A;
 3F98   :    0;
 3F99   :   26;
 3F9A   :   16;
 3F9B   :   36;
 3F9C   :    0;
 3F9D   :   21;
 3F9E   :   21;
 3F9F   :   20;
 3FA0   :   22;
 3FA1   :   26;
 3FA2   :   17;
 3FA3   :    6;
 3FA4   :   22;
 3FA5   :   28;
 3FA6   :   18;
 3FA7   :   3F;
 3FA8   :   22;
 3FA9   :   2F;
 3FAA   :   12;
 3FAB   :   32;
 3FAC   :   22;
 3FAD   :   1A;
 3FAE   :   21;
 3FAF   :   20;
 3FB0   :    0;
 3FB1   :    0;
 3FB2   :   10;
 3FB3   :   30;
 3FB4   :    0;
 3FB5   :   2A;
 3FB6   :   1A;
 3FB7   :   3A;
 3FB8   :    0;
 3FB9   :   26;
 3FBA   :   16;
 3FBB   :   36;
 3FBC   :    0;
 3FBD   :   21;
 3FBE   :   21;
 3FBF   :   20;
 3FC0   :   22;
 3FC1   :   26;
 3FC2   :   17;
 3FC3   :    6;
 3FC4   :   22;
 3FC5   :   28;
 3FC6   :   18;
 3FC7   :   3F;
 3FC8   :   22;
 3FC9   :   2F;
 3FCA   :   12;
 3FCB   :   32;
 3FCC   :   22;
 3FCD   :   1A;
 3FCE   :   21;
 3FCF   :   20;
 3FD0   :    0;
 3FD1   :    0;
 3FD2   :   10;
 3FD3   :   30;
 3FD4   :    0;
 3FD5   :   2A;
 3FD6   :   1A;
 3FD7   :   3A;
 3FD8   :    0;
 3FD9   :   26;
 3FDA   :   16;
 3FDB   :   36;
 3FDC   :    0;
 3FDD   :   21;
 3FDE   :   21;
 3FDF   :   20;
 3FE0   :   22;
 3FE1   :   26;
 3FE2   :   17;
 3FE3   :    6;
 3FE4   :   22;
 3FE5   :   28;
 3FE6   :   18;
 3FE7   :   3F;
 3FE8   :   22;
 3FE9   :   2F;
 3FEA   :   12;
 3FEB   :   32;
 3FEC   :   22;
 3FED   :   1A;
 3FEE   :   21;
 3FEF   :   20;
 3FF0   :    0;
 3FF1   :    0;
 3FF2   :   10;
 3FF3   :   30;
 3FF4   :    0;
 3FF5   :   2A;
 3FF6   :   1A;
 3FF7   :   3A;
 3FF8   :    0;
 3FF9   :   26;
 3FFA   :   16;
 3FFB   :   36;
 3FFC   :    0;
 3FFD   :   21;
 3FFE   :   21;
 3FFF   :   20;
END; 