-- Copyright (C) 1991-2013 Altera Corporation
-- Your use of Altera Corporation's design tools, logic functions 
-- and other software and tools, and its AMPP partner logic 
-- functions, and any output files from any of the foregoing 
-- (including device programming or simulation files), and any 
-- associated documentation or information are expressly subject 
-- to the terms and conditions of the Altera Program License 
-- Subscription Agreement, Altera MegaCore Function License 
-- Agreement, or other applicable license agreement, including, 
-- without limitation, that your use is for the sole purpose of 
-- programming logic devices manufactured by Altera and sold by 
-- Altera or its authorized distributors.  Please refer to the 
-- applicable agreement for further details.

-- Quartus II generated Memory Initialization File (.mif)

WIDTH=8;
DEPTH=32768;

ADDRESS_RADIX=HEX;
DATA_RADIX=HEX;

CONTENT BEGIN    
    0   :    0;
    1   :    0;
    2   :    0;
    3   :    0;
    4   :    0;
    5   :    0;
    6   :    0;
    7   :    0;
    8   :    0;
    9   :    0;
    A   :    0;
    B   :    0;
    C   :    0;
    D   :    0;
    E   :    0;
    F   :    0;
   10   :    0;
   11   :    0;
   12   :    0;
   13   :    1;
   14   :    7;
   15   :   1F;
   16   :   3F;
   17   :   7F;
   18   :   FF;
   19   :   FF;
   1A   :   FF;
   1B   :   FF;
   1C   :   FF;
   1D   :   FF;
   1E   :   FF;
   1F   :   FF;
   20   :    1;
   21   :    F;
   22   :   7F;
   23   :   FF;
   24   :   FF;
   25   :   FF;
   26   :   FF;
   27   :   FF;
   28   :   FF;
   29   :   FF;
   2A   :   FF;
   2B   :   FF;
   2C   :   FF;
   2D   :   FF;
   2E   :   FF;
   2F   :   FF;
   30   :   80;
   31   :   F0;
   32   :   FE;
   33   :   FF;
   34   :   FF;
   35   :   FF;
   36   :   FF;
   37   :   FF;
   38   :   FF;
   39   :   FF;
   3A   :   FF;
   3B   :   FF;
   3C   :   FF;
   3D   :   FF;
   3E   :   FF;
   3F   :   FF;
   40   :    0;
   41   :    0;
   42   :    0;
   43   :   80;
   44   :   E0;
   45   :   F8;
   46   :   FC;
   47   :   FE;
   48   :   FF;
   49   :   FF;
   4A   :   FF;
   4B   :   FF;
   4C   :   FF;
   4D   :   FF;
   4E   :   FF;
   4F   :   FF;
   50   :   7F;
   51   :    F;
   52   :    1;
   53   :    0;
   54   :    0;
   55   :    0;
   56   :    0;
   57   :    0;
   58   :   FF;
   59   :   FF;
   5A   :   FF;
   5B   :   FF;
   5C   :   FF;
   5D   :   FF;
   5E   :   FF;
   5F   :   FF;
   60   :   FF;
   61   :   FF;
   62   :   FF;
   63   :   7F;
   64   :   1F;
   65   :    7;
   66   :    3;
   67   :    1;
   68   :   FF;
   69   :   FF;
   6A   :   FF;
   6B   :   FF;
   6C   :   FF;
   6D   :   FF;
   6E   :   FF;
   6F   :   FF;
   70   :   FF;
   71   :   FF;
   72   :   FF;
   73   :   FE;
   74   :   F8;
   75   :   E0;
   76   :   C0;
   77   :   80;
   78   :   FF;
   79   :   FF;
   7A   :   FF;
   7B   :   FF;
   7C   :   FF;
   7D   :   FF;
   7E   :   FF;
   7F   :   FF;
   80   :   FE;
   81   :   F0;
   82   :   80;
   83   :    0;
   84   :    0;
   85   :    0;
   86   :    0;
   87   :    0;
   88   :   FF;
   89   :   FF;
   8A   :   FF;
   8B   :   FF;
   8C   :   FF;
   8D   :   FF;
   8E   :   FF;
   8F   :   FF;
   90   :    0;
   91   :    0;
   92   :    0;
   93   :    0;
   94   :    0;
   95   :    0;
   96   :    0;
   97   :    0;
   98   :    0;
   99   :    0;
   9A   :    0;
   9B   :    1;
   9C   :    7;
   9D   :   1F;
   9E   :   3F;
   9F   :   7F;
   A0   :    0;
   A1   :    0;
   A2   :    0;
   A3   :    0;
   A4   :    0;
   A5   :    0;
   A6   :    0;
   A7   :    0;
   A8   :    1;
   A9   :    F;
   AA   :   7F;
   AB   :   FF;
   AC   :   FF;
   AD   :   FF;
   AE   :   FF;
   AF   :   FF;
   B0   :    0;
   B1   :    0;
   B2   :    0;
   B3   :    0;
   B4   :    0;
   B5   :    0;
   B6   :    0;
   B7   :    0;
   B8   :   80;
   B9   :   F0;
   BA   :   FE;
   BB   :   FF;
   BC   :   FF;
   BD   :   FF;
   BE   :   FF;
   BF   :   FF;
   C0   :    0;
   C1   :    0;
   C2   :    0;
   C3   :    0;
   C4   :    0;
   C5   :    0;
   C6   :    0;
   C7   :    0;
   C8   :    0;
   C9   :    0;
   CA   :    0;
   CB   :   80;
   CC   :   E0;
   CD   :   F8;
   CE   :   FC;
   CF   :   FE;
   D0   :   80;
   D1   :   70;
   D2   :    E;
   D3   :    1;
   D4   :   80;
   D5   :   70;
   D6   :   AE;
   D7   :   AF;
   D8   :   FF;
   D9   :   FF;
   DA   :   FF;
   DB   :   FF;
   DC   :   7F;
   DD   :   8F;
   DE   :   71;
   DF   :   70;
   E0   :    0;
   E1   :    0;
   E2   :    0;
   E3   :   80;
   E4   :   60;
   E5   :   18;
   E6   :    4;
   E7   :    2;
   E8   :   FF;
   E9   :   FF;
   EA   :   FF;
   EB   :   FF;
   EC   :   FF;
   ED   :   FF;
   EE   :   FF;
   EF   :   FF;
   F0   :    0;
   F1   :    0;
   F2   :    0;
   F3   :    1;
   F4   :    6;
   F5   :   1D;
   F6   :   2A;
   F7   :   55;
   F8   :   FF;
   F9   :   FF;
   FA   :   FF;
   FB   :   FE;
   FC   :   F9;
   FD   :   E2;
   FE   :   D5;
   FF   :   AA;
  100   :    1;
  101   :    F;
  102   :   7A;
  103   :   D5;
  104   :   AB;
  105   :   7F;
  106   :   E7;
  107   :   E6;
  108   :   FE;
  109   :   F0;
  10A   :   85;
  10B   :   2A;
  10C   :   54;
  10D   :   80;
  10E   :   18;
  10F   :   19;
  110   :   81;
  111   :   80;
  112   :   C0;
  113   :   F0;
  114   :   DF;
  115   :   55;
  116   :   2A;
  117   :   AA;
  118   :   7F;
  119   :   7F;
  11A   :   3F;
  11B   :    F;
  11C   :   30;
  11D   :   BE;
  11E   :   F7;
  11F   :   77;
  120   :   AA;
  121   :   55;
  122   :   AA;
  123   :   5C;
  124   :   EA;
  125   :   43;
  126   :   8F;
  127   :   8F;
  128   :   55;
  129   :   AA;
  12A   :   55;
  12B   :   A3;
  12C   :   15;
  12D   :   BC;
  12E   :   70;
  12F   :   70;
  130   :   BA;
  131   :   55;
  132   :   55;
  133   :   6A;
  134   :   AA;
  135   :   D5;
  136   :   D5;
  137   :   D6;
  138   :   C7;
  139   :   EE;
  13A   :   EE;
  13B   :   F7;
  13C   :   77;
  13D   :   3B;
  13E   :   3B;
  13F   :   39;
  140   :   7F;
  141   :   BE;
  142   :   5C;
  143   :   A8;
  144   :   50;
  145   :   A8;
  146   :   54;
  147   :   AA;
  148   :    0;
  149   :    0;
  14A   :    0;
  14B   :    0;
  14C   :    0;
  14D   :    0;
  14E   :    0;
  14F   :    0;
  150   :   E6;
  151   :   CC;
  152   :   CC;
  153   :   88;
  154   :    2;
  155   :   43;
  156   :   8F;
  157   :   8F;
  158   :   19;
  159   :   33;
  15A   :   33;
  15B   :   77;
  15C   :   FD;
  15D   :   BC;
  15E   :   70;
  15F   :   70;
  160   :   55;
  161   :   AA;
  162   :   55;
  163   :   AA;
  164   :   55;
  165   :   AA;
  166   :   55;
  167   :   AA;
  168   :    0;
  169   :    0;
  16A   :    0;
  16B   :    0;
  16C   :    0;
  16D   :    0;
  16E   :    0;
  16F   :    0;
  170   :   AA;
  171   :   65;
  172   :   11;
  173   :    D;
  174   :    3;
  175   :    0;
  176   :    0;
  177   :    0;
  178   :   7D;
  179   :   1E;
  17A   :    E;
  17B   :    2;
  17C   :    0;
  17D   :    0;
  17E   :    0;
  17F   :    0;
  180   :   AA;
  181   :   5A;
  182   :   55;
  183   :   55;
  184   :   2B;
  185   :   6B;
  186   :   13;
  187   :    7;
  188   :   D7;
  189   :   E7;
  18A   :   EE;
  18B   :   EE;
  18C   :   DC;
  18D   :   1C;
  18E   :    C;
  18F   :    0;
  190   :   DE;
  191   :   9E;
  192   :   9E;
  193   :   9C;
  194   :   CC;
  195   :   CF;
  196   :   FA;
  197   :   D5;
  198   :   21;
  199   :   61;
  19A   :   61;
  19B   :   63;
  19C   :   33;
  19D   :   30;
  19E   :    0;
  19F   :    0;
  1A0   :   33;
  1A1   :   43;
  1A2   :   5E;
  1A3   :   75;
  1A4   :   AA;
  1A5   :   54;
  1A6   :   A8;
  1A7   :   40;
  1A8   :   CC;
  1A9   :   BC;
  1AA   :   A0;
  1AB   :   80;
  1AC   :    0;
  1AD   :    0;
  1AE   :    0;
  1AF   :    0;
  1B0   :    0;
  1B1   :    0;
  1B2   :    0;
  1B3   :    1;
  1B4   :    7;
  1B5   :   1F;
  1B6   :   3F;
  1B7   :   7F;
  1B8   :    0;
  1B9   :    0;
  1BA   :    0;
  1BB   :    1;
  1BC   :    7;
  1BD   :   1F;
  1BE   :   3F;
  1BF   :   7F;
  1C0   :    1;
  1C1   :    F;
  1C2   :   7F;
  1C3   :   FF;
  1C4   :   FF;
  1C5   :   FF;
  1C6   :   FF;
  1C7   :   FF;
  1C8   :    1;
  1C9   :    F;
  1CA   :   7F;
  1CB   :   FF;
  1CC   :   FF;
  1CD   :   FF;
  1CE   :   FF;
  1CF   :   FF;
  1D0   :   80;
  1D1   :   F0;
  1D2   :   FE;
  1D3   :   FF;
  1D4   :   FF;
  1D5   :   FF;
  1D6   :   FF;
  1D7   :   FF;
  1D8   :   80;
  1D9   :   F0;
  1DA   :   FE;
  1DB   :   FF;
  1DC   :   FF;
  1DD   :   FF;
  1DE   :   FF;
  1DF   :   FF;
  1E0   :    0;
  1E1   :    0;
  1E2   :    0;
  1E3   :   80;
  1E4   :   E0;
  1E5   :   F8;
  1E6   :   FC;
  1E7   :   FE;
  1E8   :    0;
  1E9   :    0;
  1EA   :    0;
  1EB   :   80;
  1EC   :   E0;
  1ED   :   F8;
  1EE   :   FC;
  1EF   :   FE;
  1F0   :   7F;
  1F1   :   8F;
  1F2   :   F1;
  1F3   :   FE;
  1F4   :   FF;
  1F5   :   7F;
  1F6   :   AF;
  1F7   :   AD;
  1F8   :   FF;
  1F9   :   FF;
  1FA   :   FF;
  1FB   :   FF;
  1FC   :   3F;
  1FD   :   C3;
  1FE   :   71;
  1FF   :   72;
  200   :   FF;
  201   :   FF;
  202   :   FF;
  203   :   7F;
  204   :   9F;
  205   :   E7;
  206   :   FB;
  207   :   FD;
  208   :   FF;
  209   :   FF;
  20A   :   FF;
  20B   :   FF;
  20C   :   FF;
  20D   :   FF;
  20E   :   FF;
  20F   :   FF;
  210   :   FF;
  211   :   FF;
  212   :   FF;
  213   :   FE;
  214   :   F8;
  215   :   E0;
  216   :   C0;
  217   :   80;
  218   :   FF;
  219   :   FF;
  21A   :   FF;
  21B   :   FF;
  21C   :   FF;
  21D   :   FF;
  21E   :   FF;
  21F   :   FF;
  220   :   FE;
  221   :   F0;
  222   :   80;
  223   :    0;
  224   :    3;
  225   :   3F;
  226   :   67;
  227   :   E7;
  228   :   FF;
  229   :   FF;
  22A   :   FF;
  22B   :   FF;
  22C   :   FC;
  22D   :   C0;
  22E   :   98;
  22F   :   18;
  230   :   FE;
  231   :   FE;
  232   :   FE;
  233   :   EE;
  234   :   D7;
  235   :   55;
  236   :   2A;
  237   :   AA;
  238   :   7F;
  239   :   3F;
  23A   :    F;
  23B   :   17;
  23C   :   38;
  23D   :   BE;
  23E   :   F7;
  23F   :   F7;
  240   :    0;
  241   :    1;
  242   :    2;
  243   :   1C;
  244   :   E2;
  245   :   43;
  246   :   8F;
  247   :   8F;
  248   :   FF;
  249   :   FE;
  24A   :   FD;
  24B   :   E3;
  24C   :   1D;
  24D   :   BC;
  24E   :   70;
  24F   :   70;
  250   :   FA;
  251   :   75;
  252   :    F;
  253   :    1;
  254   :    0;
  255   :    0;
  256   :    0;
  257   :    0;
  258   :    7;
  259   :   8E;
  25A   :   F0;
  25B   :   FE;
  25C   :   FF;
  25D   :   FF;
  25E   :   FF;
  25F   :   FF;
  260   :    0;
  261   :    0;
  262   :    0;
  263   :    0;
  264   :    0;
  265   :    0;
  266   :    0;
  267   :    0;
  268   :    0;
  269   :    0;
  26A   :    0;
  26B   :    0;
  26C   :    0;
  26D   :    0;
  26E   :    0;
  26F   :    0;
  270   :   AA;
  271   :   A5;
  272   :   A5;
  273   :   55;
  274   :   5A;
  275   :   5A;
  276   :   AD;
  277   :   AD;
  278   :   7D;
  279   :   7E;
  27A   :   7E;
  27B   :   EE;
  27C   :   E7;
  27D   :   E7;
  27E   :   73;
  27F   :   73;
  280   :   7F;
  281   :    F;
  282   :    1;
  283   :    0;
  284   :    0;
  285   :    0;
  286   :    0;
  287   :   F0;
  288   :   FF;
  289   :   FF;
  28A   :   FF;
  28B   :   FF;
  28C   :   FF;
  28D   :   FF;
  28E   :   FF;
  28F   :    F;
  290   :   DE;
  291   :   9E;
  292   :   9E;
  293   :   9C;
  294   :   CC;
  295   :   C9;
  296   :   E1;
  297   :   E4;
  298   :   21;
  299   :   61;
  29A   :   61;
  29B   :   63;
  29C   :   33;
  29D   :   36;
  29E   :   1E;
  29F   :   1B;
  2A0   :   FF;
  2A1   :   FE;
  2A2   :   FC;
  2A3   :   F8;
  2A4   :   F0;
  2A5   :   E0;
  2A6   :   C0;
  2A7   :   80;
  2A8   :    0;
  2A9   :    0;
  2AA   :    0;
  2AB   :    0;
  2AC   :    0;
  2AD   :    0;
  2AE   :    0;
  2AF   :    0;
  2B0   :   DA;
  2B1   :   F5;
  2B2   :   FE;
  2B3   :   FF;
  2B4   :   FF;
  2B5   :   FF;
  2B6   :   FF;
  2B7   :   FF;
  2B8   :   27;
  2B9   :   8E;
  2BA   :   F1;
  2BB   :   FE;
  2BC   :   FF;
  2BD   :   FF;
  2BE   :   FF;
  2BF   :   FF;
  2C0   :   F5;
  2C1   :   F5;
  2C2   :   EB;
  2C3   :   EB;
  2C4   :   F5;
  2C5   :   FD;
  2C6   :   FE;
  2C7   :   FE;
  2C8   :    E;
  2C9   :    E;
  2CA   :   1C;
  2CB   :   1C;
  2CC   :   9E;
  2CD   :   E6;
  2CE   :   FB;
  2CF   :   FD;
  2D0   :   E6;
  2D1   :   CC;
  2D2   :   CC;
  2D3   :   89;
  2D4   :    6;
  2D5   :   58;
  2D6   :   A0;
  2D7   :   C0;
  2D8   :   19;
  2D9   :   33;
  2DA   :   33;
  2DB   :   76;
  2DC   :   F9;
  2DD   :   A7;
  2DE   :   5F;
  2DF   :   3F;
  2E0   :   67;
  2E1   :   FE;
  2E2   :   F0;
  2E3   :   80;
  2E4   :    0;
  2E5   :    0;
  2E6   :    0;
  2E7   :    0;
  2E8   :   98;
  2E9   :    1;
  2EA   :    F;
  2EB   :   7F;
  2EC   :   FF;
  2ED   :   FF;
  2EE   :   FF;
  2EF   :   FF;
  2F0   :   7F;
  2F1   :   37;
  2F2   :   27;
  2F3   :    3;
  2F4   :    2;
  2F5   :    0;
  2F6   :    0;
  2F7   :    0;
  2F8   :    0;
  2F9   :    0;
  2FA   :    0;
  2FB   :    0;
  2FC   :    0;
  2FD   :    0;
  2FE   :    0;
  2FF   :    0;
  300   :   13;
  301   :   43;
  302   :   49;
  303   :   E1;
  304   :   73;
  305   :   1B;
  306   :    7;
  307   :    3;
  308   :   E6;
  309   :   BC;
  30A   :   B6;
  30B   :   1E;
  30C   :   8C;
  30D   :   E4;
  30E   :   F8;
  30F   :   FC;
  310   :   E6;
  311   :   CC;
  312   :   CC;
  313   :   89;
  314   :    7;
  315   :   5F;
  316   :   BF;
  317   :   FF;
  318   :   19;
  319   :   33;
  31A   :   33;
  31B   :   76;
  31C   :   F9;
  31D   :   A7;
  31E   :   5F;
  31F   :   3F;
  320   :   67;
  321   :   FF;
  322   :   FF;
  323   :   FF;
  324   :   FF;
  325   :   FF;
  326   :   FF;
  327   :   FF;
  328   :   98;
  329   :    1;
  32A   :    F;
  32B   :   7F;
  32C   :   FF;
  32D   :   FF;
  32E   :   FF;
  32F   :   FF;
  330   :   E6;
  331   :   FC;
  332   :   FE;
  333   :   FF;
  334   :   FF;
  335   :   FF;
  336   :   FF;
  337   :   FF;
  338   :   19;
  339   :   83;
  33A   :   F1;
  33B   :   FE;
  33C   :   FF;
  33D   :   FF;
  33E   :   FF;
  33F   :   FF;
  340   :   FF;
  341   :   FF;
  342   :   FC;
  343   :   F2;
  344   :   F6;
  345   :   E4;
  346   :   A0;
  347   :    0;
  348   :   FF;
  349   :   FF;
  34A   :   FF;
  34B   :   FD;
  34C   :   E9;
  34D   :   D8;
  34E   :   D0;
  34F   :   C0;
  350   :   AA;
  351   :   55;
  352   :   28;
  353   :    0;
  354   :    0;
  355   :    0;
  356   :    0;
  357   :    0;
  358   :    0;
  359   :    0;
  35A   :    0;
  35B   :    0;
  35C   :    0;
  35D   :    0;
  35E   :    0;
  35F   :    0;
  360   :   FE;
  361   :   F7;
  362   :   BF;
  363   :   7C;
  364   :   FF;
  365   :   FF;
  366   :   7F;
  367   :   BF;
  368   :   FF;
  369   :   F8;
  36A   :   C7;
  36B   :   BF;
  36C   :   7C;
  36D   :   FD;
  36E   :   FF;
  36F   :   7F;
  370   :   FE;
  371   :   F0;
  372   :   87;
  373   :   3E;
  374   :   7F;
  375   :   FE;
  376   :   FF;
  377   :   FE;
  378   :   FF;
  379   :   FF;
  37A   :   F8;
  37B   :   C1;
  37C   :   80;
  37D   :    1;
  37E   :    0;
  37F   :    1;
  380   :   7F;
  381   :   EF;
  382   :   FD;
  383   :   7E;
  384   :   1F;
  385   :   BE;
  386   :   FE;
  387   :   FD;
  388   :   FF;
  389   :   1F;
  38A   :   E3;
  38B   :   FD;
  38C   :   FE;
  38D   :   DF;
  38E   :   9F;
  38F   :   BE;
  390   :   7F;
  391   :    F;
  392   :   E1;
  393   :   BC;
  394   :   56;
  395   :   A7;
  396   :   57;
  397   :   A7;
  398   :   FF;
  399   :   FF;
  39A   :   1F;
  39B   :   43;
  39C   :   AD;
  39D   :   5E;
  39E   :   AE;
  39F   :   5E;
  3A0   :   C7;
  3A1   :   78;
  3A2   :   3F;
  3A3   :   87;
  3A4   :   E0;
  3A5   :   F8;
  3A6   :   FC;
  3A7   :   FE;
  3A8   :   3F;
  3A9   :   87;
  3AA   :   C0;
  3AB   :   F8;
  3AC   :   FF;
  3AD   :   FF;
  3AE   :   FF;
  3AF   :   FF;
  3B0   :   7F;
  3B1   :   3E;
  3B2   :    7;
  3B3   :   80;
  3B4   :   E0;
  3B5   :   F8;
  3B6   :   FC;
  3B7   :   FE;
  3B8   :   80;
  3B9   :   C1;
  3BA   :   F8;
  3BB   :   FF;
  3BC   :   FF;
  3BD   :   FF;
  3BE   :   FF;
  3BF   :   FF;
  3C0   :   E3;
  3C1   :   1E;
  3C2   :   FC;
  3C3   :   E1;
  3C4   :    7;
  3C5   :   1F;
  3C6   :   3F;
  3C7   :   7F;
  3C8   :   FC;
  3C9   :   E1;
  3CA   :    3;
  3CB   :   1F;
  3CC   :   FF;
  3CD   :   FF;
  3CE   :   FF;
  3CF   :   FF;
  3D0   :   56;
  3D1   :   BC;
  3D2   :   E0;
  3D3   :    1;
  3D4   :    7;
  3D5   :   1F;
  3D6   :   3F;
  3D7   :   7F;
  3D8   :   AD;
  3D9   :   43;
  3DA   :   1F;
  3DB   :   FF;
  3DC   :   FF;
  3DD   :   FF;
  3DE   :   FF;
  3DF   :   FF;
  3E0   :    1;
  3E1   :    F;
  3E2   :   7F;
  3E3   :   FC;
  3E4   :   FF;
  3E5   :   FF;
  3E6   :   7F;
  3E7   :   BF;
  3E8   :   FF;
  3E9   :   F8;
  3EA   :   C7;
  3EB   :   BF;
  3EC   :   7C;
  3ED   :   FD;
  3EE   :   FF;
  3EF   :   7F;
  3F0   :    1;
  3F1   :    F;
  3F2   :   7F;
  3F3   :   FE;
  3F4   :   FF;
  3F5   :   FE;
  3F6   :   FF;
  3F7   :   FE;
  3F8   :   FF;
  3F9   :   FF;
  3FA   :   F8;
  3FB   :   C1;
  3FC   :   80;
  3FD   :    1;
  3FE   :    0;
  3FF   :    1;
  400   :   80;
  401   :   F0;
  402   :   FE;
  403   :   7F;
  404   :   1F;
  405   :   BF;
  406   :   FF;
  407   :   FF;
  408   :   FF;
  409   :   1F;
  40A   :   E3;
  40B   :   FD;
  40C   :   FE;
  40D   :   DF;
  40E   :   9F;
  40F   :   BE;
  410   :   80;
  411   :   F0;
  412   :   FE;
  413   :   BF;
  414   :   57;
  415   :   A7;
  416   :   57;
  417   :   A7;
  418   :   FF;
  419   :   FF;
  41A   :   1F;
  41B   :   43;
  41C   :   AD;
  41D   :   5E;
  41E   :   AE;
  41F   :   5E;
  420   :   C7;
  421   :   F8;
  422   :   FF;
  423   :   7F;
  424   :   1F;
  425   :    7;
  426   :    3;
  427   :    1;
  428   :   3F;
  429   :   87;
  42A   :   C0;
  42B   :   F8;
  42C   :   FF;
  42D   :   FF;
  42E   :   FF;
  42F   :   FF;
  430   :   FF;
  431   :   FE;
  432   :   FF;
  433   :   7F;
  434   :   1F;
  435   :    7;
  436   :    3;
  437   :    1;
  438   :   80;
  439   :   C1;
  43A   :   F8;
  43B   :   FF;
  43C   :   FF;
  43D   :   FF;
  43E   :   FF;
  43F   :   FF;
  440   :   E3;
  441   :   1F;
  442   :   FF;
  443   :   FE;
  444   :   F8;
  445   :   E0;
  446   :   C0;
  447   :   80;
  448   :   FC;
  449   :   E1;
  44A   :    3;
  44B   :   1F;
  44C   :   FF;
  44D   :   FF;
  44E   :   FF;
  44F   :   FF;
  450   :   57;
  451   :   BF;
  452   :   FF;
  453   :   FE;
  454   :   F8;
  455   :   E0;
  456   :   C0;
  457   :   80;
  458   :   AD;
  459   :   43;
  45A   :   1F;
  45B   :   FF;
  45C   :   FF;
  45D   :   FF;
  45E   :   FF;
  45F   :   FF;
  460   :    0;
  461   :    7;
  462   :   3F;
  463   :   7C;
  464   :   FF;
  465   :   FF;
  466   :   7F;
  467   :   BF;
  468   :    1;
  469   :    8;
  46A   :   47;
  46B   :   BF;
  46C   :   7C;
  46D   :   FD;
  46E   :   FF;
  46F   :   7F;
  470   :    0;
  471   :    0;
  472   :    7;
  473   :   3E;
  474   :   7F;
  475   :   FE;
  476   :   FF;
  477   :   FE;
  478   :    1;
  479   :    F;
  47A   :   78;
  47B   :   C1;
  47C   :   80;
  47D   :    1;
  47E   :    0;
  47F   :    1;
  480   :    0;
  481   :   E0;
  482   :   FC;
  483   :   7E;
  484   :   1F;
  485   :   BF;
  486   :   FF;
  487   :   FF;
  488   :   80;
  489   :   10;
  48A   :   E2;
  48B   :   FD;
  48C   :   FE;
  48D   :   DF;
  48E   :   9F;
  48F   :   BE;
  490   :    0;
  491   :    0;
  492   :   E0;
  493   :   BC;
  494   :   56;
  495   :   A7;
  496   :   57;
  497   :   A7;
  498   :   80;
  499   :   F0;
  49A   :   1E;
  49B   :   43;
  49C   :   AD;
  49D   :   5E;
  49E   :   AE;
  49F   :   5E;
  4A0   :   C7;
  4A1   :   78;
  4A2   :   3F;
  4A3   :   87;
  4A4   :   60;
  4A5   :   18;
  4A6   :    4;
  4A7   :    3;
  4A8   :   3F;
  4A9   :   87;
  4AA   :   C0;
  4AB   :   F8;
  4AC   :   FF;
  4AD   :   FF;
  4AE   :   FF;
  4AF   :   FF;
  4B0   :   7F;
  4B1   :   3F;
  4B2   :    7;
  4B3   :   80;
  4B4   :   60;
  4B5   :   18;
  4B6   :    4;
  4B7   :    2;
  4B8   :   80;
  4B9   :   C1;
  4BA   :   F8;
  4BB   :   FF;
  4BC   :   FF;
  4BD   :   FF;
  4BE   :   FF;
  4BF   :   FF;
  4C0   :   E3;
  4C1   :   1E;
  4C2   :   FC;
  4C3   :   E1;
  4C4   :    6;
  4C5   :   1D;
  4C6   :   2A;
  4C7   :   D5;
  4C8   :   FC;
  4C9   :   E1;
  4CA   :    3;
  4CB   :   1E;
  4CC   :   F9;
  4CD   :   E2;
  4CE   :   D5;
  4CF   :   AA;
  4D0   :   56;
  4D1   :   BC;
  4D2   :   E0;
  4D3   :    1;
  4D4   :    6;
  4D5   :   1D;
  4D6   :   2A;
  4D7   :   55;
  4D8   :   AD;
  4D9   :   43;
  4DA   :   1F;
  4DB   :   FE;
  4DC   :   F9;
  4DD   :   E2;
  4DE   :   D5;
  4DF   :   AA;
  4E0   :    1;
  4E1   :    F;
  4E2   :   7F;
  4E3   :   FC;
  4E4   :   FF;
  4E5   :   FF;
  4E6   :   7F;
  4E7   :   BF;
  4E8   :    1;
  4E9   :    8;
  4EA   :   47;
  4EB   :   BF;
  4EC   :   7C;
  4ED   :   FD;
  4EE   :   FF;
  4EF   :   7F;
  4F0   :    1;
  4F1   :    F;
  4F2   :   7F;
  4F3   :   FE;
  4F4   :   FF;
  4F5   :   FE;
  4F6   :   FF;
  4F7   :   FE;
  4F8   :    1;
  4F9   :    F;
  4FA   :   78;
  4FB   :   C1;
  4FC   :   80;
  4FD   :    1;
  4FE   :    0;
  4FF   :    1;
  500   :   80;
  501   :   F0;
  502   :   FE;
  503   :   7F;
  504   :   1F;
  505   :   BF;
  506   :   FF;
  507   :   FF;
  508   :   80;
  509   :   10;
  50A   :   E2;
  50B   :   FD;
  50C   :   FE;
  50D   :   DF;
  50E   :   9F;
  50F   :   BE;
  510   :   80;
  511   :   F0;
  512   :   FE;
  513   :   BF;
  514   :   57;
  515   :   A7;
  516   :   57;
  517   :   A7;
  518   :   80;
  519   :   F0;
  51A   :   1E;
  51B   :   43;
  51C   :   AD;
  51D   :   5E;
  51E   :   AE;
  51F   :   5E;
  520   :   C7;
  521   :   F8;
  522   :   FF;
  523   :   7F;
  524   :   9F;
  525   :   E7;
  526   :   FB;
  527   :   FD;
  528   :   3F;
  529   :   87;
  52A   :   C0;
  52B   :   F8;
  52C   :   FF;
  52D   :   FF;
  52E   :   FF;
  52F   :   FF;
  530   :   FF;
  531   :   FE;
  532   :   FF;
  533   :   7F;
  534   :   9F;
  535   :   E7;
  536   :   FD;
  537   :   FB;
  538   :   80;
  539   :   C1;
  53A   :   F8;
  53B   :   FF;
  53C   :   FF;
  53D   :   FF;
  53E   :   FF;
  53F   :   FF;
  540   :   E3;
  541   :   1F;
  542   :   FF;
  543   :   FE;
  544   :   F8;
  545   :   E0;
  546   :   C0;
  547   :   80;
  548   :   FC;
  549   :   E1;
  54A   :    3;
  54B   :   1F;
  54C   :   FF;
  54D   :   FF;
  54E   :   FF;
  54F   :   FF;
  550   :   57;
  551   :   BF;
  552   :   FF;
  553   :   FE;
  554   :   F8;
  555   :   E0;
  556   :   C0;
  557   :   80;
  558   :   AD;
  559   :   43;
  55A   :   1F;
  55B   :   FF;
  55C   :   FF;
  55D   :   FF;
  55E   :   FF;
  55F   :   FF;
  560   :   BA;
  561   :   F5;
  562   :   FD;
  563   :   7C;
  564   :   1F;
  565   :   BF;
  566   :   FF;
  567   :   FF;
  568   :   C7;
  569   :    E;
  56A   :   E2;
  56B   :   FC;
  56C   :   FE;
  56D   :   DF;
  56E   :   9F;
  56F   :   BE;
  570   :   FA;
  571   :   3D;
  572   :   E7;
  573   :   BD;
  574   :   56;
  575   :   A7;
  576   :   57;
  577   :   A7;
  578   :    7;
  579   :   C6;
  57A   :   18;
  57B   :   42;
  57C   :   AD;
  57D   :   5E;
  57E   :   AE;
  57F   :   5E;
  580   :   F5;
  581   :   F5;
  582   :   EB;
  583   :   EB;
  584   :   75;
  585   :   9D;
  586   :   87;
  587   :   83;
  588   :    E;
  589   :    E;
  58A   :   1C;
  58B   :   1C;
  58C   :   9E;
  58D   :   66;
  58E   :   7A;
  58F   :   7C;
  590   :   F5;
  591   :   F5;
  592   :   E8;
  593   :   E8;
  594   :   75;
  595   :   1D;
  596   :    6;
  597   :    2;
  598   :    E;
  599   :    E;
  59A   :   1C;
  59B   :   1C;
  59C   :   9E;
  59D   :   E6;
  59E   :   FB;
  59F   :   FD;
  5A0   :   E6;
  5A1   :   CC;
  5A2   :   CC;
  5A3   :   89;
  5A4   :    E;
  5A5   :   59;
  5A6   :   A1;
  5A7   :   C1;
  5A8   :   19;
  5A9   :   1B;
  5AA   :   1B;
  5AB   :   76;
  5AC   :   F1;
  5AD   :   A6;
  5AE   :   1E;
  5AF   :   3E;
  5B0   :   E6;
  5B1   :   CC;
  5B2   :   CC;
  5B3   :   89;
  5B4   :    E;
  5B5   :   58;
  5B6   :   A0;
  5B7   :   C0;
  5B8   :   19;
  5B9   :   33;
  5BA   :   33;
  5BB   :   76;
  5BC   :   F1;
  5BD   :   A7;
  5BE   :   5F;
  5BF   :   3F;
  5C0   :   67;
  5C1   :   F7;
  5C2   :   FF;
  5C3   :   FC;
  5C4   :   FF;
  5C5   :   FF;
  5C6   :   7F;
  5C7   :   BF;
  5C8   :   98;
  5C9   :    8;
  5CA   :    7;
  5CB   :   3F;
  5CC   :   7C;
  5CD   :   FD;
  5CE   :   FF;
  5CF   :   7F;
  5D0   :   67;
  5D1   :   FE;
  5D2   :   F7;
  5D3   :   BE;
  5D4   :   7F;
  5D5   :   FE;
  5D6   :   FF;
  5D7   :   FE;
  5D8   :   98;
  5D9   :    1;
  5DA   :    9;
  5DB   :   40;
  5DC   :   80;
  5DD   :    1;
  5DE   :    0;
  5DF   :    1;
  5E0   :   BA;
  5E1   :   F5;
  5E2   :   FC;
  5E3   :   7F;
  5E4   :   1F;
  5E5   :   BF;
  5E6   :   FF;
  5E7   :   FF;
  5E8   :   C7;
  5E9   :    E;
  5EA   :   E3;
  5EB   :   FC;
  5EC   :   FE;
  5ED   :   DF;
  5EE   :   9F;
  5EF   :   BE;
  5F0   :   FA;
  5F1   :   F5;
  5F2   :   FF;
  5F3   :   BF;
  5F4   :   57;
  5F5   :   A7;
  5F6   :   57;
  5F7   :   A7;
  5F8   :    7;
  5F9   :   8E;
  5FA   :   10;
  5FB   :   42;
  5FC   :   AD;
  5FD   :   5E;
  5FE   :   AE;
  5FF   :   5E;
  600   :   F5;
  601   :   F5;
  602   :   EB;
  603   :   EB;
  604   :   F5;
  605   :   FD;
  606   :   FE;
  607   :   FE;
  608   :    E;
  609   :    E;
  60A   :   1C;
  60B   :   1C;
  60C   :   9E;
  60D   :   66;
  60E   :   7B;
  60F   :   7D;
  610   :   F5;
  611   :   F5;
  612   :   EB;
  613   :   EB;
  614   :   F5;
  615   :   FD;
  616   :   FE;
  617   :   FE;
  618   :    E;
  619   :    E;
  61A   :   1C;
  61B   :   1C;
  61C   :   8E;
  61D   :   E6;
  61E   :   FA;
  61F   :   FD;
  620   :   E6;
  621   :   CC;
  622   :   CC;
  623   :   89;
  624   :    7;
  625   :   5F;
  626   :   AF;
  627   :   FF;
  628   :   19;
  629   :   33;
  62A   :   33;
  62B   :   76;
  62C   :   F9;
  62D   :   A6;
  62E   :   5E;
  62F   :   3E;
  630   :   E6;
  631   :   CC;
  632   :   CC;
  633   :   89;
  634   :    F;
  635   :   5F;
  636   :   BF;
  637   :   FF;
  638   :   19;
  639   :   33;
  63A   :   33;
  63B   :   76;
  63C   :   F1;
  63D   :   A7;
  63E   :   5F;
  63F   :   3F;
  640   :   67;
  641   :   F7;
  642   :   FF;
  643   :   FC;
  644   :   FC;
  645   :   FD;
  646   :   7F;
  647   :   BF;
  648   :   98;
  649   :    8;
  64A   :    7;
  64B   :   3F;
  64C   :   7C;
  64D   :   FD;
  64E   :   FF;
  64F   :   7F;
  650   :   67;
  651   :   FF;
  652   :   FF;
  653   :   FE;
  654   :   FF;
  655   :   FE;
  656   :   FF;
  657   :   FE;
  658   :   98;
  659   :    1;
  65A   :    8;
  65B   :   41;
  65C   :   80;
  65D   :    1;
  65E   :    0;
  65F   :    1;
  660   :   FF;
  661   :   FF;
  662   :   FF;
  663   :   FE;
  664   :   F8;
  665   :   E1;
  666   :   C1;
  667   :   81;
  668   :   FF;
  669   :   FF;
  66A   :   FF;
  66B   :   FF;
  66C   :   FF;
  66D   :   FE;
  66E   :   FE;
  66F   :   FE;
  670   :   FF;
  671   :   FF;
  672   :   FF;
  673   :   7F;
  674   :   1F;
  675   :   87;
  676   :   83;
  677   :   81;
  678   :   FF;
  679   :   FF;
  67A   :   FF;
  67B   :   FF;
  67C   :   FF;
  67D   :   7F;
  67E   :   7F;
  67F   :   7F;
  680   :    0;
  681   :    0;
  682   :    0;
  683   :    1;
  684   :    7;
  685   :   1F;
  686   :   3F;
  687   :   7F;
  688   :   FF;
  689   :   FF;
  68A   :   FF;
  68B   :   FF;
  68C   :   FF;
  68D   :   FE;
  68E   :   FE;
  68F   :   FE;
  690   :    0;
  691   :    0;
  692   :    0;
  693   :   80;
  694   :   E0;
  695   :   F8;
  696   :   FC;
  697   :   FE;
  698   :   FF;
  699   :   FF;
  69A   :   FF;
  69B   :   FF;
  69C   :   FF;
  69D   :   7F;
  69E   :   7F;
  69F   :   7F;
  6A0   :    0;
  6A1   :    0;
  6A2   :    0;
  6A3   :    0;
  6A4   :    0;
  6A5   :    1;
  6A6   :    1;
  6A7   :    1;
  6A8   :    0;
  6A9   :    0;
  6AA   :    0;
  6AB   :    1;
  6AC   :    7;
  6AD   :   1E;
  6AE   :   3E;
  6AF   :   7E;
  6B0   :    0;
  6B1   :    0;
  6B2   :    0;
  6B3   :    0;
  6B4   :    0;
  6B5   :   80;
  6B6   :   80;
  6B7   :   80;
  6B8   :    0;
  6B9   :    0;
  6BA   :    0;
  6BB   :   80;
  6BC   :   E0;
  6BD   :   78;
  6BE   :   7C;
  6BF   :   7E;
  6C0   :    0;
  6C1   :    0;
  6C2   :    0;
  6C3   :    1;
  6C4   :    7;
  6C5   :   1F;
  6C6   :   3F;
  6C7   :   7F;
  6C8   :    0;
  6C9   :    0;
  6CA   :    0;
  6CB   :    1;
  6CC   :    7;
  6CD   :   1E;
  6CE   :   3E;
  6CF   :   7E;
  6D0   :    0;
  6D1   :    0;
  6D2   :    0;
  6D3   :   80;
  6D4   :   E0;
  6D5   :   F8;
  6D6   :   FC;
  6D7   :   FE;
  6D8   :    0;
  6D9   :    0;
  6DA   :    0;
  6DB   :   80;
  6DC   :   E0;
  6DD   :   78;
  6DE   :   7C;
  6DF   :   7E;
  6E0   :   FE;
  6E1   :   F5;
  6E2   :   82;
  6E3   :    5;
  6E4   :    2;
  6E5   :    5;
  6E6   :    2;
  6E7   :    5;
  6E8   :   FF;
  6E9   :   FA;
  6EA   :   FD;
  6EB   :   FA;
  6EC   :   FD;
  6ED   :   FA;
  6EE   :   FD;
  6EF   :   FA;
  6F0   :    2;
  6F1   :    5;
  6F2   :    2;
  6F3   :   85;
  6F4   :   E2;
  6F5   :   FD;
  6F6   :   FE;
  6F7   :   FF;
  6F8   :   FD;
  6F9   :   FA;
  6FA   :   FD;
  6FB   :   FA;
  6FC   :   FD;
  6FD   :   FA;
  6FE   :   FD;
  6FF   :   FE;
  700   :    0;
  701   :    E;
  702   :   7C;
  703   :   FC;
  704   :   F8;
  705   :   F8;
  706   :   F8;
  707   :   F8;
  708   :   FF;
  709   :   FF;
  70A   :   FF;
  70B   :   FF;
  70C   :   FF;
  70D   :   FF;
  70E   :   FF;
  70F   :   FF;
  710   :   F8;
  711   :   F8;
  712   :   F8;
  713   :   78;
  714   :   18;
  715   :    4;
  716   :    2;
  717   :    1;
  718   :   FF;
  719   :   FF;
  71A   :   FF;
  71B   :   FF;
  71C   :   FF;
  71D   :   FB;
  71E   :   FD;
  71F   :   FE;
  720   :    0;
  721   :   B0;
  722   :   BE;
  723   :   9F;
  724   :   DF;
  725   :   9F;
  726   :   DF;
  727   :   9F;
  728   :   FF;
  729   :   7F;
  72A   :   3F;
  72B   :   7F;
  72C   :   3F;
  72D   :   7F;
  72E   :   3F;
  72F   :   7F;
  730   :   DF;
  731   :   9F;
  732   :   DF;
  733   :   9E;
  734   :   D8;
  735   :   80;
  736   :   C0;
  737   :   80;
  738   :   3F;
  739   :   7F;
  73A   :   3F;
  73B   :   7F;
  73C   :   3F;
  73D   :   7F;
  73E   :   3F;
  73F   :   7F;
  740   :   FF;
  741   :   CF;
  742   :   C1;
  743   :   A0;
  744   :   E0;
  745   :   A0;
  746   :   E0;
  747   :   A0;
  748   :   FF;
  749   :   7F;
  74A   :   3F;
  74B   :   7F;
  74C   :   3F;
  74D   :   7F;
  74E   :   3F;
  74F   :   7F;
  750   :   E0;
  751   :   A0;
  752   :   E0;
  753   :   A1;
  754   :   E7;
  755   :   BF;
  756   :   FF;
  757   :   FF;
  758   :   3F;
  759   :   7F;
  75A   :   3F;
  75B   :   7F;
  75C   :   3F;
  75D   :   7F;
  75E   :   3F;
  75F   :   7F;
  760   :   7F;
  761   :    F;
  762   :    1;
  763   :    0;
  764   :    0;
  765   :    0;
  766   :    0;
  767   :    0;
  768   :   80;
  769   :   F0;
  76A   :   FE;
  76B   :   FF;
  76C   :   FF;
  76D   :   FF;
  76E   :   FF;
  76F   :   FF;
  770   :   3F;
  771   :   CF;
  772   :   F3;
  773   :   7C;
  774   :   1F;
  775   :    7;
  776   :    3;
  777   :    1;
  778   :    0;
  779   :    0;
  77A   :    0;
  77B   :   80;
  77C   :   E0;
  77D   :   F8;
  77E   :   FC;
  77F   :   FE;
  780   :   FE;
  781   :   FE;
  782   :   FE;
  783   :   FE;
  784   :   F8;
  785   :   E0;
  786   :   C0;
  787   :   80;
  788   :    1;
  789   :    1;
  78A   :    1;
  78B   :    1;
  78C   :    7;
  78D   :   1F;
  78E   :   3F;
  78F   :   7F;
  790   :   FE;
  791   :   F0;
  792   :   80;
  793   :    0;
  794   :    0;
  795   :    0;
  796   :    0;
  797   :    0;
  798   :    1;
  799   :    F;
  79A   :   7F;
  79B   :   FF;
  79C   :   FF;
  79D   :   FF;
  79E   :   FF;
  79F   :   FF;
  7A0   :   F2;
  7A1   :   EC;
  7A2   :   F0;
  7A3   :   D8;
  7A4   :   CC;
  7A5   :   CF;
  7A6   :   CF;
  7A7   :   CE;
  7A8   :   2D;
  7A9   :   33;
  7AA   :   1F;
  7AB   :   2F;
  7AC   :   37;
  7AD   :   33;
  7AE   :   30;
  7AF   :   31;
  7B0   :   FF;
  7B1   :   7F;
  7B2   :   3F;
  7B3   :   5F;
  7B4   :   BF;
  7B5   :   7E;
  7B6   :   FC;
  7B7   :   F8;
  7B8   :    2;
  7B9   :   82;
  7BA   :   C2;
  7BB   :   F2;
  7BC   :   FE;
  7BD   :   FD;
  7BE   :   FB;
  7BF   :    7;
  7C0   :   FF;
  7C1   :   FF;
  7C2   :   FF;
  7C3   :   F0;
  7C4   :   C0;
  7C5   :   7E;
  7C6   :   3F;
  7C7   :   1F;
  7C8   :   40;
  7C9   :   41;
  7CA   :   43;
  7CB   :   4F;
  7CC   :   7F;
  7CD   :   A1;
  7CE   :   DF;
  7CF   :   E0;
  7D0   :   FF;
  7D1   :   FF;
  7D2   :   FF;
  7D3   :   7F;
  7D4   :   3F;
  7D5   :   FF;
  7D6   :   FF;
  7D7   :   7F;
  7D8   :   FD;
  7D9   :   FD;
  7DA   :   F9;
  7DB   :   F1;
  7DC   :   E9;
  7DD   :   D9;
  7DE   :   19;
  7DF   :   89;
  7E0   :   F2;
  7E1   :   C1;
  7E2   :   C0;
  7E3   :   F0;
  7E4   :   FC;
  7E5   :   FF;
  7E6   :   FF;
  7E7   :   FF;
  7E8   :    D;
  7E9   :   3E;
  7EA   :   3F;
  7EB   :   4F;
  7EC   :   33;
  7ED   :    C;
  7EE   :   13;
  7EF   :   1C;
  7F0   :   F2;
  7F1   :   FA;
  7F2   :   FA;
  7F3   :   7A;
  7F4   :   1A;
  7F5   :    7;
  7F6   :   C0;
  7F7   :   F0;
  7F8   :   FF;
  7F9   :   FF;
  7FA   :   7F;
  7FB   :   9F;
  7FC   :   E7;
  7FD   :   F8;
  7FE   :   3F;
  7FF   :   CF;
  800   :   15;
  801   :   15;
  802   :   15;
  803   :   16;
  804   :   18;
  805   :   E0;
  806   :    3;
  807   :    F;
  808   :   EA;
  809   :   EA;
  80A   :   EA;
  80B   :   E9;
  80C   :   E7;
  80D   :   1F;
  80E   :   FC;
  80F   :   F0;
  810   :   4F;
  811   :   83;
  812   :    3;
  813   :    F;
  814   :   3F;
  815   :   FF;
  816   :   FF;
  817   :   FF;
  818   :   B1;
  819   :   7C;
  81A   :   FC;
  81B   :   F0;
  81C   :   C0;
  81D   :    1;
  81E   :    1;
  81F   :    1;
  820   :   FF;
  821   :   FF;
  822   :   FF;
  823   :   FF;
  824   :   FF;
  825   :   FF;
  826   :   FC;
  827   :   BF;
  828   :   1C;
  829   :   1C;
  82A   :   1C;
  82B   :   1C;
  82C   :   3C;
  82D   :    C;
  82E   :   33;
  82F   :   4C;
  830   :   FC;
  831   :   7F;
  832   :   BF;
  833   :   7F;
  834   :   BF;
  835   :   7F;
  836   :   FF;
  837   :   3F;
  838   :   33;
  839   :   8C;
  83A   :   73;
  83B   :   B4;
  83C   :   77;
  83D   :   B7;
  83E   :   37;
  83F   :   C7;
  840   :   3F;
  841   :   FF;
  842   :   F1;
  843   :   E0;
  844   :   C0;
  845   :   C0;
  846   :   C0;
  847   :   E1;
  848   :   C0;
  849   :    0;
  84A   :    E;
  84B   :   1F;
  84C   :   3F;
  84D   :   3F;
  84E   :   3F;
  84F   :   1E;
  850   :   CF;
  851   :   CF;
  852   :   CF;
  853   :   CF;
  854   :   CF;
  855   :   FF;
  856   :   F1;
  857   :   CF;
  858   :   31;
  859   :   31;
  85A   :   31;
  85B   :   31;
  85C   :   31;
  85D   :    1;
  85E   :    E;
  85F   :   30;
  860   :   CF;
  861   :   F3;
  862   :   FE;
  863   :   FF;
  864   :   FF;
  865   :   FF;
  866   :   FF;
  867   :   FF;
  868   :   B3;
  869   :   FC;
  86A   :   FF;
  86B   :   FF;
  86C   :   FF;
  86D   :   FF;
  86E   :   FF;
  86F   :   FF;
  870   :   CF;
  871   :   F7;
  872   :   FF;
  873   :   BF;
  874   :   EF;
  875   :   FB;
  876   :   FC;
  877   :   FF;
  878   :   37;
  879   :   CF;
  87A   :   33;
  87B   :   CC;
  87C   :   F3;
  87D   :   FC;
  87E   :   FF;
  87F   :   FE;
  880   :   F3;
  881   :   FC;
  882   :   F3;
  883   :   CF;
  884   :   3F;
  885   :   FF;
  886   :   FF;
  887   :   FF;
  888   :    C;
  889   :    3;
  88A   :    C;
  88B   :   31;
  88C   :   C7;
  88D   :   1F;
  88E   :   3F;
  88F   :   7F;
  890   :   3F;
  891   :   FF;
  892   :   FF;
  893   :   FF;
  894   :   FF;
  895   :   FF;
  896   :   FF;
  897   :   FF;
  898   :   C1;
  899   :    F;
  89A   :   7F;
  89B   :   FF;
  89C   :   FF;
  89D   :   FF;
  89E   :   FF;
  89F   :   FF;
  8A0   :    0;
  8A1   :    0;
  8A2   :    0;
  8A3   :    0;
  8A4   :    3;
  8A5   :    F;
  8A6   :   1F;
  8A7   :   3F;
  8A8   :    0;
  8A9   :    0;
  8AA   :    0;
  8AB   :    3;
  8AC   :    F;
  8AD   :   1F;
  8AE   :   3F;
  8AF   :   FF;
  8B0   :    0;
  8B1   :    7;
  8B2   :   3F;
  8B3   :   FF;
  8B4   :   FF;
  8B5   :   FF;
  8B6   :   FF;
  8B7   :   FF;
  8B8   :    7;
  8B9   :   3F;
  8BA   :   FF;
  8BB   :   FF;
  8BC   :   FF;
  8BD   :   FF;
  8BE   :   FF;
  8BF   :   FF;
  8C0   :    0;
  8C1   :   E0;
  8C2   :   FC;
  8C3   :   FF;
  8C4   :   FF;
  8C5   :   FF;
  8C6   :   FF;
  8C7   :   FF;
  8C8   :   E0;
  8C9   :   FC;
  8CA   :   FF;
  8CB   :   FF;
  8CC   :   FF;
  8CD   :   FF;
  8CE   :   FF;
  8CF   :   FF;
  8D0   :    0;
  8D1   :    0;
  8D2   :    0;
  8D3   :    0;
  8D4   :   C0;
  8D5   :   F0;
  8D6   :   F8;
  8D7   :   FC;
  8D8   :    0;
  8D9   :    0;
  8DA   :    0;
  8DB   :   C0;
  8DC   :   F0;
  8DD   :   F8;
  8DE   :   FC;
  8DF   :   FF;
  8E0   :   FF;
  8E1   :   3F;
  8E2   :   1F;
  8E3   :   33;
  8E4   :   F8;
  8E5   :   3E;
  8E6   :   3F;
  8E7   :    1;
  8E8   :   FF;
  8E9   :   FF;
  8EA   :   EF;
  8EB   :   CF;
  8EC   :    7;
  8ED   :   31;
  8EE   :   F8;
  8EF   :   FE;
  8F0   :   FF;
  8F1   :   FF;
  8F2   :   FF;
  8F3   :   FF;
  8F4   :   FF;
  8F5   :   3F;
  8F6   :   8F;
  8F7   :   E3;
  8F8   :   FF;
  8F9   :   FF;
  8FA   :   FF;
  8FB   :   FF;
  8FC   :   FF;
  8FD   :   FF;
  8FE   :   7F;
  8FF   :   1F;
  900   :   FF;
  901   :   FF;
  902   :   FF;
  903   :   FF;
  904   :   FF;
  905   :   FC;
  906   :   F1;
  907   :   CC;
  908   :   FF;
  909   :   FF;
  90A   :   FF;
  90B   :   FF;
  90C   :   FF;
  90D   :   FF;
  90E   :   FE;
  90F   :   F3;
  910   :   FF;
  911   :   FC;
  912   :   F2;
  913   :   CE;
  914   :   1E;
  915   :   78;
  916   :   E3;
  917   :    F;
  918   :   FF;
  919   :   FF;
  91A   :   FD;
  91B   :   F1;
  91C   :   E1;
  91D   :   87;
  91E   :   1C;
  91F   :   F0;
  920   :   80;
  921   :   E1;
  922   :   7F;
  923   :   1F;
  924   :   3C;
  925   :   30;
  926   :   20;
  927   :   F8;
  928   :   7F;
  929   :   9E;
  92A   :   E0;
  92B   :   EF;
  92C   :   DF;
  92D   :   DF;
  92E   :   DF;
  92F   :    7;
  930   :   F1;
  931   :   C0;
  932   :   C0;
  933   :   E0;
  934   :   FC;
  935   :   3F;
  936   :    7;
  937   :    F;
  938   :   3E;
  939   :   7F;
  93A   :   7F;
  93B   :   1F;
  93C   :   C3;
  93D   :   F0;
  93E   :   FA;
  93F   :   F3;
  940   :   DD;
  941   :   3D;
  942   :   7C;
  943   :   79;
  944   :   F4;
  945   :   EB;
  946   :   5B;
  947   :   93;
  948   :   22;
  949   :   C2;
  94A   :   83;
  94B   :   86;
  94C   :    B;
  94D   :   14;
  94E   :   A4;
  94F   :   6C;
  950   :   DF;
  951   :   A7;
  952   :   2F;
  953   :   BF;
  954   :   5C;
  955   :   E0;
  956   :   EB;
  957   :   EF;
  958   :   20;
  959   :   58;
  95A   :   D0;
  95B   :   40;
  95C   :   A3;
  95D   :   1F;
  95E   :   14;
  95F   :   10;
  960   :   FE;
  961   :   1F;
  962   :   19;
  963   :   30;
  964   :   F8;
  965   :   FE;
  966   :   1F;
  967   :    1;
  968   :   E1;
  969   :   EE;
  96A   :   EF;
  96B   :   CF;
  96C   :    7;
  96D   :   C1;
  96E   :   F8;
  96F   :   FE;
  970   :    C;
  971   :   DC;
  972   :   FC;
  973   :   7E;
  974   :    F;
  975   :    1;
  976   :   81;
  977   :   E3;
  978   :   F7;
  979   :   27;
  97A   :   83;
  97B   :   F1;
  97C   :   FC;
  97D   :   FE;
  97E   :   7E;
  97F   :   1C;
  980   :   6F;
  981   :   EF;
  982   :   EE;
  983   :   ED;
  984   :   46;
  985   :    1;
  986   :   5D;
  987   :   BC;
  988   :   90;
  989   :   10;
  98A   :   11;
  98B   :   12;
  98C   :   B9;
  98D   :   FE;
  98E   :   A2;
  98F   :   43;
  990   :   AE;
  991   :   C0;
  992   :   92;
  993   :   2E;
  994   :   9E;
  995   :   78;
  996   :   E3;
  997   :   CF;
  998   :   51;
  999   :   3F;
  99A   :   6D;
  99B   :   D1;
  99C   :   61;
  99D   :   87;
  99E   :   1C;
  99F   :   30;
  9A0   :   DF;
  9A1   :   FF;
  9A2   :   FF;
  9A3   :   FF;
  9A4   :   FF;
  9A5   :   FE;
  9A6   :   C0;
  9A7   :   FC;
  9A8   :   20;
  9A9   :   1F;
  9AA   :   20;
  9AB   :   40;
  9AC   :   40;
  9AD   :   41;
  9AE   :   7F;
  9AF   :   43;
  9B0   :   F5;
  9B1   :   3F;
  9B2   :   EF;
  9B3   :   79;
  9B4   :   7E;
  9B5   :   FF;
  9B6   :   FF;
  9B7   :   FF;
  9B8   :    A;
  9B9   :   F0;
  9BA   :   DE;
  9BB   :   A7;
  9BC   :   91;
  9BD   :    8;
  9BE   :    4;
  9BF   :    4;
  9C0   :   FF;
  9C1   :   FC;
  9C2   :   7F;
  9C3   :   EE;
  9C4   :   9E;
  9C5   :   3F;
  9C6   :   7F;
  9C7   :   7F;
  9C8   :   90;
  9C9   :   87;
  9CA   :   BB;
  9CB   :   75;
  9CC   :   E9;
  9CD   :   D0;
  9CE   :   A0;
  9CF   :   A0;
  9D0   :   FF;
  9D1   :   FF;
  9D2   :   FF;
  9D3   :   83;
  9D4   :    3;
  9D5   :   7F;
  9D6   :   83;
  9D7   :   7F;
  9D8   :    1;
  9D9   :   F9;
  9DA   :    5;
  9DB   :   7E;
  9DC   :   FE;
  9DD   :   FE;
  9DE   :   FE;
  9DF   :   FE;
  9E0   :    0;
  9E1   :   80;
  9E2   :   40;
  9E3   :   A0;
  9E4   :   50;
  9E5   :   A8;
  9E6   :   54;
  9E7   :   AA;
  9E8   :   7F;
  9E9   :   3F;
  9EA   :   1F;
  9EB   :    F;
  9EC   :    7;
  9ED   :    3;
  9EE   :    1;
  9EF   :    0;
  9F0   :   55;
  9F1   :   AA;
  9F2   :   55;
  9F3   :   AA;
  9F4   :   55;
  9F5   :   AA;
  9F6   :   55;
  9F7   :   AA;
  9F8   :    0;
  9F9   :    0;
  9FA   :    0;
  9FB   :    0;
  9FC   :    0;
  9FD   :    0;
  9FE   :    0;
  9FF   :    0;
  A00   :   FF;
  A01   :   FE;
  A02   :   FC;
  A03   :   F8;
  A04   :   F0;
  A05   :   E0;
  A06   :   C0;
  A07   :   80;
  A08   :    0;
  A09   :    0;
  A0A   :    0;
  A0B   :    0;
  A0C   :    0;
  A0D   :    0;
  A0E   :    0;
  A0F   :    0;
  A10   :    0;
  A11   :    0;
  A12   :    0;
  A13   :    0;
  A14   :    0;
  A15   :    0;
  A16   :    0;
  A17   :    0;
  A18   :    0;
  A19   :    0;
  A1A   :    0;
  A1B   :    0;
  A1C   :    0;
  A1D   :    0;
  A1E   :    0;
  A1F   :    0;
  A20   :   3F;
  A21   :   EF;
  A22   :   BB;
  A23   :   FC;
  A24   :   FF;
  A25   :   FF;
  A26   :   FF;
  A27   :   FF;
  A28   :   FF;
  A29   :   DF;
  A2A   :   E6;
  A2B   :   FB;
  A2C   :   FC;
  A2D   :   FF;
  A2E   :   FF;
  A2F   :   FF;
  A30   :   FF;
  A31   :   FF;
  A32   :   FF;
  A33   :   FF;
  A34   :   7F;
  A35   :   CF;
  A36   :   F7;
  A37   :   FD;
  A38   :   FF;
  A39   :   BF;
  A3A   :   7F;
  A3B   :   FF;
  A3C   :   FF;
  A3D   :   3F;
  A3E   :   DB;
  A3F   :   3F;
  A40   :   FF;
  A41   :   FF;
  A42   :   FF;
  A43   :   FE;
  A44   :   FC;
  A45   :   FB;
  A46   :   EF;
  A47   :   3F;
  A48   :   FF;
  A49   :   FF;
  A4A   :   FF;
  A4B   :   FF;
  A4C   :   FF;
  A4D   :   FC;
  A4E   :   D1;
  A4F   :   FF;
  A50   :   FB;
  A51   :   F6;
  A52   :   E7;
  A53   :   DF;
  A54   :   7F;
  A55   :   FF;
  A56   :   FF;
  A57   :   FF;
  A58   :   FF;
  A59   :   FD;
  A5A   :   FF;
  A5B   :   EF;
  A5C   :   8F;
  A5D   :   FF;
  A5E   :   FF;
  A5F   :   FF;
  A60   :   FF;
  A61   :   FF;
  A62   :   FF;
  A63   :   FF;
  A64   :   FF;
  A65   :   FF;
  A66   :   FF;
  A67   :   FF;
  A68   :   C0;
  A69   :   F0;
  A6A   :   FE;
  A6B   :   FF;
  A6C   :   FF;
  A6D   :   FF;
  A6E   :   FF;
  A6F   :   FF;
  A70   :   BF;
  A71   :   CF;
  A72   :   F3;
  A73   :   FC;
  A74   :   FF;
  A75   :   FF;
  A76   :   FF;
  A77   :   FF;
  A78   :    0;
  A79   :    0;
  A7A   :    0;
  A7B   :   80;
  A7C   :   E0;
  A7D   :   F8;
  A7E   :   FC;
  A7F   :   FE;
  A80   :   FE;
  A81   :   FE;
  A82   :   FE;
  A83   :   FF;
  A84   :   FF;
  A85   :   FF;
  A86   :   FF;
  A87   :   FF;
  A88   :    1;
  A89   :    1;
  A8A   :    1;
  A8B   :    1;
  A8C   :    7;
  A8D   :   1F;
  A8E   :   3F;
  A8F   :   7F;
  A90   :   FF;
  A91   :   FF;
  A92   :   FF;
  A93   :   FF;
  A94   :   FF;
  A95   :   FF;
  A96   :   FF;
  A97   :   FF;
  A98   :    1;
  A99   :    F;
  A9A   :   7F;
  A9B   :   FF;
  A9C   :   FF;
  A9D   :   FF;
  A9E   :   FF;
  A9F   :   FF;
  AA0   :   AB;
  AA1   :   5E;
  AA2   :   5C;
  AA3   :   58;
  AA4   :   B0;
  AA5   :   A0;
  AA6   :   40;
  AA7   :   80;
  AA8   :   76;
  AA9   :   E0;
  AAA   :   E0;
  AAB   :   E0;
  AAC   :   C0;
  AAD   :   C0;
  AAE   :   80;
  AAF   :    0;
  AB0   :   5E;
  AB1   :   5E;
  AB2   :   5E;
  AB3   :   AC;
  AB4   :   54;
  AB5   :   A9;
  AB6   :   55;
  AB7   :   AA;
  AB8   :   21;
  AB9   :   21;
  ABA   :    1;
  ABB   :    3;
  ABC   :    3;
  ABD   :    2;
  ABE   :    0;
  ABF   :    0;
  AC0   :   55;
  AC1   :   AA;
  AC2   :   55;
  AC3   :   AA;
  AC4   :   55;
  AC5   :   AA;
  AC6   :   5E;
  AC7   :   BE;
  AC8   :    0;
  AC9   :    0;
  ACA   :    0;
  ACB   :    0;
  ACC   :    0;
  ACD   :    0;
  ACE   :    0;
  ACF   :    0;
  AD0   :   55;
  AD1   :   AA;
  AD2   :   5E;
  AD3   :   BE;
  AD4   :   FE;
  AD5   :   FE;
  AD6   :   FE;
  AD7   :   FE;
  AD8   :    0;
  AD9   :    0;
  ADA   :    0;
  ADB   :    0;
  ADC   :    0;
  ADD   :    0;
  ADE   :    0;
  ADF   :    0;
  AE0   :   AA;
  AE1   :   65;
  AE2   :   11;
  AE3   :    D;
  AE4   :    3;
  AE5   :    0;
  AE6   :    0;
  AE7   :    0;
  AE8   :   7D;
  AE9   :   1E;
  AEA   :    E;
  AEB   :    2;
  AEC   :    0;
  AED   :    0;
  AEE   :    0;
  AEF   :    0;
  AF0   :   FE;
  AF1   :   FE;
  AF2   :   FE;
  AF3   :   FE;
  AF4   :   FE;
  AF5   :   FE;
  AF6   :   FE;
  AF7   :   FE;
  AF8   :    0;
  AF9   :    0;
  AFA   :    0;
  AFB   :    0;
  AFC   :    0;
  AFD   :    0;
  AFE   :    0;
  AFF   :    0;
  B00   :   FF;
  B01   :   FE;
  B02   :   7C;
  B03   :   B8;
  B04   :   50;
  B05   :   A0;
  B06   :   40;
  B07   :   80;
  B08   :    0;
  B09   :    0;
  B0A   :    0;
  B0B   :    0;
  B0C   :    0;
  B0D   :    0;
  B0E   :    0;
  B0F   :    0;
  B10   :   F5;
  B11   :   F5;
  B12   :   EB;
  B13   :   EB;
  B14   :   D5;
  B15   :   55;
  B16   :   2A;
  B17   :   AA;
  B18   :    E;
  B19   :    E;
  B1A   :   1C;
  B1B   :   1C;
  B1C   :   3E;
  B1D   :   BE;
  B1E   :   F7;
  B1F   :   F7;
  B20   :   13;
  B21   :   43;
  B22   :   49;
  B23   :   E1;
  B24   :   F3;
  B25   :   F3;
  B26   :   E7;
  B27   :   E7;
  B28   :   EC;
  B29   :   BC;
  B2A   :   B6;
  B2B   :   1E;
  B2C   :    C;
  B2D   :    C;
  B2E   :   18;
  B2F   :   18;
  B30   :   95;
  B31   :   CB;
  B32   :   65;
  B33   :   B3;
  B34   :   59;
  B35   :   AD;
  B36   :   57;
  B37   :   AB;
  B38   :    0;
  B39   :    0;
  B3A   :    0;
  B3B   :    0;
  B3C   :    0;
  B3D   :    0;
  B3E   :    0;
  B3F   :    0;
  B40   :    0;
  B41   :    0;
  B42   :    0;
  B43   :    0;
  B44   :    0;
  B45   :    0;
  B46   :    0;
  B47   :    0;
  B48   :    0;
  B49   :    0;
  B4A   :    0;
  B4B   :    0;
  B4C   :    0;
  B4D   :    0;
  B4E   :    0;
  B4F   :    0;
  B50   :   67;
  B51   :   F3;
  B52   :   F3;
  B53   :   79;
  B54   :   78;
  B55   :   38;
  B56   :   39;
  B57   :   19;
  B58   :   98;
  B59   :    C;
  B5A   :    C;
  B5B   :   86;
  B5C   :   87;
  B5D   :   C7;
  B5E   :   C6;
  B5F   :   E6;
  B60   :    1;
  B61   :    2;
  B62   :   84;
  B63   :   78;
  B64   :   10;
  B65   :   20;
  B66   :   40;
  B67   :   80;
  B68   :   FE;
  B69   :   FC;
  B6A   :   78;
  B6B   :   80;
  B6C   :   E0;
  B6D   :   C0;
  B6E   :   80;
  B6F   :    0;
  B70   :   DE;
  B71   :   9E;
  B72   :   9E;
  B73   :   9C;
  B74   :   CC;
  B75   :   CF;
  B76   :   FA;
  B77   :   D5;
  B78   :   21;
  B79   :   61;
  B7A   :   61;
  B7B   :   63;
  B7C   :   33;
  B7D   :   30;
  B7E   :    0;
  B7F   :    0;
  B80   :   C0;
  B81   :   B0;
  B82   :   8C;
  B83   :   83;
  B84   :   80;
  B85   :   80;
  B86   :   80;
  B87   :   80;
  B88   :    0;
  B89   :   40;
  B8A   :   70;
  B8B   :   7C;
  B8C   :   7F;
  B8D   :   7F;
  B8E   :   7F;
  B8F   :   7F;
  B90   :    0;
  B91   :    0;
  B92   :    0;
  B93   :    0;
  B94   :   C0;
  B95   :   B0;
  B96   :   8C;
  B97   :   83;
  B98   :    0;
  B99   :    0;
  B9A   :    0;
  B9B   :    0;
  B9C   :    0;
  B9D   :   40;
  B9E   :   70;
  B9F   :   7C;
  BA0   :   FF;
  BA1   :   FF;
  BA2   :   FF;
  BA3   :   FF;
  BA4   :   FF;
  BA5   :   FF;
  BA6   :   FF;
  BA7   :   FF;
  BA8   :   FF;
  BA9   :   FF;
  BAA   :   FF;
  BAB   :   FF;
  BAC   :   FF;
  BAD   :   FF;
  BAE   :   FF;
  BAF   :   FF;
  BB0   :    0;
  BB1   :    0;
  BB2   :    0;
  BB3   :    0;
  BB4   :    0;
  BB5   :    0;
  BB6   :    0;
  BB7   :    0;
  BB8   :   FF;
  BB9   :   FF;
  BBA   :   FF;
  BBB   :   FF;
  BBC   :   FF;
  BBD   :   FF;
  BBE   :   FF;
  BBF   :   FF;
  BC0   :    0;
  BC1   :    0;
  BC2   :    0;
  BC3   :    0;
  BC4   :    0;
  BC5   :    0;
  BC6   :    0;
  BC7   :    0;
  BC8   :   80;
  BC9   :   C0;
  BCA   :   E0;
  BCB   :   F0;
  BCC   :   F8;
  BCD   :   FC;
  BCE   :   FE;
  BCF   :   FF;
  BD0   :   FF;
  BD1   :   BF;
  BD2   :   8F;
  BD3   :   83;
  BD4   :   80;
  BD5   :   80;
  BD6   :   80;
  BD7   :   80;
  BD8   :   FF;
  BD9   :   7F;
  BDA   :   7F;
  BDB   :   7F;
  BDC   :   7F;
  BDD   :   7F;
  BDE   :   7F;
  BDF   :   7F;
  BE0   :   FF;
  BE1   :   FF;
  BE2   :   FF;
  BE3   :   FF;
  BE4   :   FF;
  BE5   :   BF;
  BE6   :   8F;
  BE7   :   83;
  BE8   :   FF;
  BE9   :   FF;
  BEA   :   FF;
  BEB   :   FF;
  BEC   :   FF;
  BED   :   7F;
  BEE   :   7F;
  BEF   :   7F;
  BF0   :    0;
  BF1   :    0;
  BF2   :    0;
  BF3   :    0;
  BF4   :    0;
  BF5   :    2;
  BF6   :    E;
  BF7   :   3E;
  BF8   :   FF;
  BF9   :   FF;
  BFA   :   FF;
  BFB   :   FF;
  BFC   :   FF;
  BFD   :   FD;
  BFE   :   F1;
  BFF   :   C1;
  C00   :    0;
  C01   :    2;
  C02   :    E;
  C03   :   3E;
  C04   :   FE;
  C05   :   FE;
  C06   :   FE;
  C07   :   FE;
  C08   :   FF;
  C09   :   FD;
  C0A   :   F1;
  C0B   :   C1;
  C0C   :    1;
  C0D   :    1;
  C0E   :    1;
  C0F   :    1;
  C10   :   FF;
  C11   :   FF;
  C12   :   FF;
  C13   :   FF;
  C14   :   FF;
  C15   :   FF;
  C16   :   FF;
  C17   :   FF;
  C18   :    1;
  C19   :    3;
  C1A   :    7;
  C1B   :    F;
  C1C   :   1F;
  C1D   :   3F;
  C1E   :   7F;
  C1F   :   FF;
  C20   :   80;
  C21   :   40;
  C22   :   20;
  C23   :   10;
  C24   :    8;
  C25   :    4;
  C26   :    2;
  C27   :    1;
  C28   :   7F;
  C29   :   BF;
  C2A   :   DF;
  C2B   :   EF;
  C2C   :   F7;
  C2D   :   FB;
  C2E   :   FD;
  C2F   :   FE;
  C30   :   80;
  C31   :   80;
  C32   :   80;
  C33   :   80;
  C34   :   80;
  C35   :   80;
  C36   :   80;
  C37   :   80;
  C38   :   7F;
  C39   :   7F;
  C3A   :   7F;
  C3B   :   7F;
  C3C   :   7F;
  C3D   :   7F;
  C3E   :   7F;
  C3F   :   7F;
  C40   :   C0;
  C41   :   F0;
  C42   :   BC;
  C43   :   CF;
  C44   :   F3;
  C45   :   B8;
  C46   :   CF;
  C47   :   F3;
  C48   :   3F;
  C49   :    F;
  C4A   :    3;
  C4B   :    0;
  C4C   :    0;
  C4D   :    0;
  C4E   :    0;
  C4F   :    0;
  C50   :   80;
  C51   :   80;
  C52   :   80;
  C53   :   80;
  C54   :   C0;
  C55   :   F0;
  C56   :   BC;
  C57   :   CF;
  C58   :   7F;
  C59   :   7F;
  C5A   :   7F;
  C5B   :   7F;
  C5C   :   3F;
  C5D   :    F;
  C5E   :   43;
  C5F   :   30;
  C60   :   BC;
  C61   :   CF;
  C62   :   F3;
  C63   :   FC;
  C64   :   BF;
  C65   :   CF;
  C66   :   F3;
  C67   :   FF;
  C68   :    0;
  C69   :    0;
  C6A   :    0;
  C6B   :    0;
  C6C   :    0;
  C6D   :    0;
  C6E   :    0;
  C6F   :    0;
  C70   :   F3;
  C71   :   BC;
  C72   :   CF;
  C73   :   F3;
  C74   :   BC;
  C75   :   CF;
  C76   :   F3;
  C77   :   FC;
  C78   :    0;
  C79   :    0;
  C7A   :    0;
  C7B   :    0;
  C7C   :    0;
  C7D   :    0;
  C7E   :    0;
  C7F   :    0;
  C80   :   FF;
  C81   :   7F;
  C82   :   3F;
  C83   :   1F;
  C84   :    F;
  C85   :    7;
  C86   :    3;
  C87   :    1;
  C88   :    1;
  C89   :   83;
  C8A   :   C7;
  C8B   :   EF;
  C8C   :   F7;
  C8D   :   FB;
  C8E   :   FD;
  C8F   :   FE;
  C90   :   83;
  C91   :   47;
  C92   :   2F;
  C93   :   1F;
  C94   :   3F;
  C95   :   7F;
  C96   :   FF;
  C97   :   FF;
  C98   :   7D;
  C99   :   BB;
  C9A   :   D7;
  C9B   :   EF;
  C9C   :   DF;
  C9D   :   BF;
  C9E   :   7F;
  C9F   :   FF;
  CA0   :   3E;
  CA1   :   DF;
  CA2   :   F1;
  CA3   :   FC;
  CA4   :   FF;
  CA5   :   FF;
  CA6   :   FF;
  CA7   :   FF;
  CA8   :   E1;
  CA9   :   EE;
  CAA   :   FF;
  CAB   :   FF;
  CAC   :   FF;
  CAD   :   FF;
  CAE   :   FF;
  CAF   :   FF;
  CB0   :    6;
  CB1   :   CE;
  CB2   :   FE;
  CB3   :   7E;
  CB4   :    F;
  CB5   :   C1;
  CB6   :   F1;
  CB7   :   FF;
  CB8   :   F9;
  CB9   :   31;
  CBA   :   81;
  CBB   :   F1;
  CBC   :   FC;
  CBD   :   FE;
  CBE   :   FE;
  CBF   :   FC;
  CC0   :   6F;
  CC1   :   EF;
  CC2   :   EE;
  CC3   :   ED;
  CC4   :   7F;
  CC5   :    3;
  CC6   :   5F;
  CC7   :   BF;
  CC8   :   90;
  CC9   :   10;
  CCA   :   11;
  CCB   :   12;
  CCC   :   80;
  CCD   :   FF;
  CCE   :   AF;
  CCF   :   7F;
  CD0   :   AE;
  CD1   :   C3;
  CD2   :   9F;
  CD3   :   3F;
  CD4   :   FF;
  CD5   :   FF;
  CD6   :   FF;
  CD7   :   FF;
  CD8   :   51;
  CD9   :   3F;
  CDA   :   6F;
  CDB   :   FF;
  CDC   :   FF;
  CDD   :   FF;
  CDE   :   FF;
  CDF   :   FF;
  CE0   :   E1;
  CE1   :   AE;
  CE2   :   5F;
  CE3   :   AF;
  CE4   :   56;
  CE5   :   A8;
  CE6   :   55;
  CE7   :   AA;
  CE8   :    C;
  CE9   :   11;
  CEA   :    0;
  CEB   :    0;
  CEC   :    1;
  CED   :    3;
  CEE   :    0;
  CEF   :    0;
  CF0   :   FF;
  CF1   :   FF;
  CF2   :   CF;
  CF3   :   FF;
  CF4   :   FE;
  CF5   :   FD;
  CF6   :   FF;
  CF7   :   FF;
  CF8   :   C0;
  CF9   :   F0;
  CFA   :   FC;
  CFB   :   FF;
  CFC   :   FF;
  CFD   :   FF;
  CFE   :   FF;
  CFF   :   FF;
  D00   :   FE;
  D01   :   FE;
  D02   :   FE;
  D03   :   FE;
  D04   :   FF;
  D05   :   FF;
  D06   :   F3;
  D07   :   FF;
  D08   :    0;
  D09   :    0;
  D0A   :    0;
  D0B   :    0;
  D0C   :    3;
  D0D   :    F;
  D0E   :   3F;
  D0F   :   FF;
  D10   :   FE;
  D11   :   F0;
  D12   :   80;
  D13   :    0;
  D14   :    0;
  D15   :    0;
  D16   :    0;
  D17   :    7;
  D18   :   FF;
  D19   :   FF;
  D1A   :   FF;
  D1B   :   FF;
  D1C   :   FF;
  D1D   :   FF;
  D1E   :   FF;
  D1F   :   F8;
  D20   :   BB;
  D21   :   5B;
  D22   :   55;
  D23   :   55;
  D24   :   AB;
  D25   :   AB;
  D26   :   6B;
  D27   :   75;
  D28   :   E6;
  D29   :   E6;
  D2A   :   EE;
  D2B   :   EE;
  D2C   :   DC;
  D2D   :   DC;
  D2E   :   9C;
  D2F   :   8E;
  D30   :   80;
  D31   :   9F;
  D32   :   93;
  D33   :   97;
  D34   :   9F;
  D35   :   9F;
  D36   :   9F;
  D37   :   9F;
  D38   :   7F;
  D39   :   7F;
  D3A   :   7F;
  D3B   :   7B;
  D3C   :   7F;
  D3D   :   7F;
  D3E   :   7F;
  D3F   :   7F;
  D40   :   1A;
  D41   :   F5;
  D42   :   EA;
  D43   :   D5;
  D44   :   A8;
  D45   :   D0;
  D46   :   B0;
  D47   :   90;
  D48   :   E7;
  D49   :   DF;
  D4A   :   BF;
  D4B   :   BF;
  D4C   :   7F;
  D4D   :   7F;
  D4E   :   7F;
  D4F   :   7F;
  D50   :   1C;
  D51   :    7;
  D52   :    3;
  D53   :   C3;
  D54   :   25;
  D55   :   13;
  D56   :    D;
  D57   :    B;
  D58   :   E3;
  D59   :   F9;
  D5A   :   FD;
  D5B   :   FC;
  D5C   :   FA;
  D5D   :   EC;
  D5E   :   F2;
  D5F   :   F4;
  D60   :    1;
  D61   :   F9;
  D62   :   C9;
  D63   :   D9;
  D64   :   F9;
  D65   :   F9;
  D66   :   F9;
  D67   :   F9;
  D68   :   FE;
  D69   :   FE;
  D6A   :   FE;
  D6B   :   EE;
  D6C   :   FE;
  D6D   :   7E;
  D6E   :   7E;
  D6F   :   7E;
  D70   :   9F;
  D71   :   9F;
  D72   :   9F;
  D73   :   9F;
  D74   :   9F;
  D75   :   9F;
  D76   :   9F;
  D77   :   9F;
  D78   :   7F;
  D79   :   7F;
  D7A   :   7F;
  D7B   :   7F;
  D7C   :   7F;
  D7D   :   7F;
  D7E   :   7F;
  D7F   :   7F;
  D80   :   B1;
  D81   :   91;
  D82   :   C0;
  D83   :   C0;
  D84   :   F4;
  D85   :   FB;
  D86   :   FF;
  D87   :   FF;
  D88   :   7F;
  D89   :   7F;
  D8A   :   BF;
  D8B   :   BF;
  D8C   :   DB;
  D8D   :   E4;
  D8E   :   F0;
  D8F   :   FC;
  D90   :   8D;
  D91   :   CB;
  D92   :   CF;
  D93   :   1B;
  D94   :   3F;
  D95   :   FF;
  D96   :   FF;
  D97   :   FF;
  D98   :   F2;
  D99   :   B4;
  D9A   :   30;
  D9B   :   E4;
  D9C   :   C0;
  D9D   :    1;
  D9E   :    3;
  D9F   :    F;
  DA0   :   F9;
  DA1   :   F9;
  DA2   :   F9;
  DA3   :   F9;
  DA4   :   F9;
  DA5   :   F9;
  DA6   :   F9;
  DA7   :   F9;
  DA8   :   7E;
  DA9   :   7E;
  DAA   :   7E;
  DAB   :   FE;
  DAC   :   FE;
  DAD   :   FE;
  DAE   :   FE;
  DAF   :   FE;
  DB0   :   9F;
  DB1   :   9E;
  DB2   :   9F;
  DB3   :   9F;
  DB4   :   9F;
  DB5   :   9F;
  DB6   :   9F;
  DB7   :   9F;
  DB8   :   7F;
  DB9   :   7F;
  DBA   :   7F;
  DBB   :   7F;
  DBC   :   7F;
  DBD   :   7F;
  DBE   :   7F;
  DBF   :   7F;
  DC0   :   FE;
  DC1   :    6;
  DC2   :   FE;
  DC3   :   FE;
  DC4   :   FE;
  DC5   :   86;
  DC6   :   FE;
  DC7   :   FE;
  DC8   :   FF;
  DC9   :   FF;
  DCA   :    3;
  DCB   :   FF;
  DCC   :   FF;
  DCD   :   FF;
  DCE   :   C3;
  DCF   :   FF;
  DD0   :   7F;
  DD1   :   70;
  DD2   :   7F;
  DD3   :   7F;
  DD4   :   7F;
  DD5   :   70;
  DD6   :   7F;
  DD7   :   7F;
  DD8   :   BF;
  DD9   :   BF;
  DDA   :   B8;
  DDB   :   BF;
  DDC   :   BF;
  DDD   :   BF;
  DDE   :   B8;
  DDF   :   BF;
  DE0   :   F9;
  DE1   :   39;
  DE2   :   F9;
  DE3   :   F9;
  DE4   :   F9;
  DE5   :   F9;
  DE6   :   F9;
  DE7   :   F9;
  DE8   :   FE;
  DE9   :   FE;
  DEA   :   1E;
  DEB   :   FE;
  DEC   :   FE;
  DED   :   FE;
  DEE   :   7E;
  DEF   :   FE;
  DF0   :   FF;
  DF1   :   E0;
  DF2   :   F8;
  DF3   :   FE;
  DF4   :   FF;
  DF5   :   FF;
  DF6   :   FF;
  DF7   :   FF;
  DF8   :    0;
  DF9   :   9F;
  DFA   :   C7;
  DFB   :   E1;
  DFC   :   F8;
  DFD   :   FE;
  DFE   :   FF;
  DFF   :   FF;
  E00   :   FF;
  E01   :    1;
  E02   :    0;
  E03   :    0;
  E04   :   E0;
  E05   :   FF;
  E06   :   FF;
  E07   :   FF;
  E08   :    0;
  E09   :   FE;
  E0A   :   FF;
  E0B   :   FF;
  E0C   :   1F;
  E0D   :    0;
  E0E   :   80;
  E0F   :   F8;
  E10   :   FF;
  E11   :   C0;
  E12   :    0;
  E13   :    0;
  E14   :    7;
  E15   :   FF;
  E16   :   FF;
  E17   :   FF;
  E18   :    0;
  E19   :   3F;
  E1A   :   FF;
  E1B   :   FF;
  E1C   :   F8;
  E1D   :    0;
  E1E   :    0;
  E1F   :    7;
  E20   :   FF;
  E21   :    7;
  E22   :   1F;
  E23   :   7F;
  E24   :   FF;
  E25   :   FF;
  E26   :   FF;
  E27   :   FF;
  E28   :    0;
  E29   :   F9;
  E2A   :   E1;
  E2B   :   83;
  E2C   :    7;
  E2D   :   1F;
  E2E   :   7F;
  E2F   :   FF;
  E30   :    0;
  E31   :    0;
  E32   :    0;
  E33   :    0;
  E34   :    0;
  E35   :    0;
  E36   :    7;
  E37   :   59;
  E38   :    0;
  E39   :    0;
  E3A   :    0;
  E3B   :    0;
  E3C   :    0;
  E3D   :    0;
  E3E   :    0;
  E3F   :    0;
  E40   :   FF;
  E41   :   FF;
  E42   :   FC;
  E43   :   F2;
  E44   :   F6;
  E45   :   E4;
  E46   :   A0;
  E47   :    0;
  E48   :   FF;
  E49   :   FF;
  E4A   :   FF;
  E4B   :   FD;
  E4C   :   E9;
  E4D   :   D8;
  E4E   :   D0;
  E4F   :   C0;
  E50   :   E1;
  E51   :   14;
  E52   :   50;
  E53   :   C0;
  E54   :    0;
  E55   :    0;
  E56   :    0;
  E57   :    0;
  E58   :   FE;
  E59   :   E8;
  E5A   :   A0;
  E5B   :    0;
  E5C   :    0;
  E5D   :    0;
  E5E   :    0;
  E5F   :    0;
  E60   :    7;
  E61   :   18;
  E62   :    B;
  E63   :    3;
  E64   :    0;
  E65   :    0;
  E66   :    0;
  E67   :    0;
  E68   :   FF;
  E69   :   27;
  E6A   :    6;
  E6B   :    0;
  E6C   :    0;
  E6D   :    0;
  E6E   :    0;
  E6F   :    0;
  E70   :   FF;
  E71   :   FF;
  E72   :   3F;
  E73   :   4F;
  E74   :   67;
  E75   :   3B;
  E76   :    4;
  E77   :    0;
  E78   :   FF;
  E79   :   FF;
  E7A   :   FF;
  E7B   :   FF;
  E7C   :   DF;
  E7D   :    F;
  E7E   :    B;
  E7F   :    3;
  E80   :    0;
  E81   :    0;
  E82   :    0;
  E83   :    0;
  E84   :    0;
  E85   :    0;
  E86   :   E0;
  E87   :   AA;
  E88   :    0;
  E89   :    0;
  E8A   :    0;
  E8B   :    0;
  E8C   :    0;
  E8D   :    0;
  E8E   :    0;
  E8F   :    0;
  E90   :    1;
  E91   :    1;
  E92   :    3;
  E93   :    D;
  E94   :   3A;
  E95   :   D4;
  E96   :   A0;
  E97   :    0;
  E98   :    0;
  E99   :    0;
  E9A   :    0;
  E9B   :    0;
  E9C   :    0;
  E9D   :    0;
  E9E   :    0;
  E9F   :    0;
  EA0   :   7F;
  EA1   :    F;
  EA2   :    1;
  EA3   :    0;
  EA4   :    0;
  EA5   :    0;
  EA6   :    0;
  EA7   :    0;
  EA8   :    0;
  EA9   :    0;
  EAA   :    0;
  EAB   :    0;
  EAC   :    0;
  EAD   :    0;
  EAE   :    0;
  EAF   :    0;
  EB0   :   BF;
  EB1   :   CF;
  EB2   :   F3;
  EB3   :   7C;
  EB4   :   1F;
  EB5   :    7;
  EB6   :    3;
  EB7   :    1;
  EB8   :    0;
  EB9   :    0;
  EBA   :    0;
  EBB   :    0;
  EBC   :    0;
  EBD   :    0;
  EBE   :    0;
  EBF   :    0;
  EC0   :   FE;
  EC1   :   FE;
  EC2   :   FE;
  EC3   :   FE;
  EC4   :   F8;
  EC5   :   E0;
  EC6   :   C0;
  EC7   :   80;
  EC8   :    0;
  EC9   :    0;
  ECA   :    0;
  ECB   :    0;
  ECC   :    0;
  ECD   :    0;
  ECE   :    0;
  ECF   :    0;
  ED0   :   FE;
  ED1   :   F0;
  ED2   :   80;
  ED3   :    0;
  ED4   :    0;
  ED5   :    0;
  ED6   :    0;
  ED7   :    0;
  ED8   :    0;
  ED9   :    0;
  EDA   :    0;
  EDB   :    0;
  EDC   :    0;
  EDD   :    0;
  EDE   :    0;
  EDF   :    0;
  EE0   :   F5;
  EE1   :   F5;
  EE2   :   EB;
  EE3   :   EB;
  EE4   :   75;
  EE5   :   1D;
  EE6   :    6;
  EE7   :    2;
  EE8   :    E;
  EE9   :    E;
  EEA   :   1C;
  EEB   :   1C;
  EEC   :   9E;
  EED   :   E6;
  EEE   :   FB;
  EEF   :   FD;
  EF0   :   80;
  EF1   :   80;
  EF2   :   C0;
  EF3   :   B0;
  EF4   :   5C;
  EF5   :   2B;
  EF6   :    5;
  EF7   :    0;
  EF8   :    0;
  EF9   :    0;
  EFA   :    0;
  EFB   :    0;
  EFC   :    0;
  EFD   :    0;
  EFE   :    0;
  EFF   :    0;
  F00   :   7F;
  F01   :   EF;
  F02   :   FD;
  F03   :   7E;
  F04   :   1F;
  F05   :   BE;
  F06   :   FE;
  F07   :   FD;
  F08   :   FF;
  F09   :   1F;
  F0A   :   E3;
  F0B   :   FD;
  F0C   :   FE;
  F0D   :   DF;
  F0E   :   9F;
  F0F   :   BE;
  F10   :   7F;
  F11   :    F;
  F12   :   E1;
  F13   :   BC;
  F14   :   56;
  F15   :   A7;
  F16   :   57;
  F17   :   A7;
  F18   :   FF;
  F19   :   FF;
  F1A   :   1F;
  F1B   :   43;
  F1C   :   AD;
  F1D   :   5E;
  F1E   :   AE;
  F1F   :   5E;
  F20   :   FF;
  F21   :   FF;
  F22   :   FF;
  F23   :   7F;
  F24   :   1F;
  F25   :   BF;
  F26   :   FF;
  F27   :   FF;
  F28   :   71;
  F29   :    1;
  F2A   :   E1;
  F2B   :   FC;
  F2C   :   FE;
  F2D   :   DF;
  F2E   :   9F;
  F2F   :   BE;
  F30   :    6;
  F31   :   CE;
  F32   :   FE;
  F33   :   7E;
  F34   :   7F;
  F35   :   9F;
  F36   :   87;
  F37   :   83;
  F38   :   F9;
  F39   :   31;
  F3A   :   81;
  F3B   :   F1;
  F3C   :   89;
  F3D   :   61;
  F3E   :   79;
  F3F   :   7D;
  F40   :   FF;
  F41   :   FF;
  F42   :   FF;
  F43   :   FE;
  F44   :   F8;
  F45   :   E1;
  F46   :   C1;
  F47   :   81;
  F48   :   FF;
  F49   :   FF;
  F4A   :   FF;
  F4B   :   FF;
  F4C   :   FF;
  F4D   :   FE;
  F4E   :   FE;
  F4F   :   FE;
  F50   :   6F;
  F51   :   EF;
  F52   :   EE;
  F53   :   CF;
  F54   :   CE;
  F55   :   D9;
  F56   :   E1;
  F57   :   C1;
  F58   :   90;
  F59   :   10;
  F5A   :   11;
  F5B   :   30;
  F5C   :   31;
  F5D   :   26;
  F5E   :   1E;
  F5F   :   3E;
  F60   :    0;
  F61   :    0;
  F62   :    0;
  F63   :    0;
  F64   :    0;
  F65   :    0;
  F66   :    7;
  F67   :   59;
  F68   :    0;
  F69   :    0;
  F6A   :    0;
  F6B   :    0;
  F6C   :    0;
  F6D   :    0;
  F6E   :    0;
  F6F   :    0;
  F70   :   FF;
  F71   :   FF;
  F72   :   FF;
  F73   :   FF;
  F74   :   FE;
  F75   :   FE;
  F76   :   EC;
  F77   :   E4;
  F78   :    1;
  F79   :   13;
  F7A   :   1B;
  F7B   :   3F;
  F7C   :   BF;
  F7D   :   FF;
  F7E   :   FF;
  F7F   :   FF;
  F80   :   FE;
  F81   :   FE;
  F82   :   EC;
  F83   :   E4;
  F84   :   C0;
  F85   :   41;
  F86   :    1;
  F87   :   13;
  F88   :   FF;
  F89   :   FF;
  F8A   :   FF;
  F8B   :   FF;
  F8C   :   FF;
  F8D   :   FE;
  F8E   :   FE;
  F8F   :   EC;
  F90   :   C0;
  F91   :    1;
  F92   :    1;
  F93   :   13;
  F94   :   1B;
  F95   :   3F;
  F96   :   BF;
  F97   :   FF;
  F98   :   FF;
  F99   :   FE;
  F9A   :   FE;
  F9B   :   EC;
  F9C   :   E4;
  F9D   :   C0;
  F9E   :   40;
  F9F   :    1;
  FA0   :   1B;
  FA1   :   3F;
  FA2   :   BF;
  FA3   :   FF;
  FA4   :   FF;
  FA5   :   FF;
  FA6   :   FF;
  FA7   :   FF;
  FA8   :   E4;
  FA9   :   C0;
  FAA   :   40;
  FAB   :    1;
  FAC   :    1;
  FAD   :   13;
  FAE   :   1B;
  FAF   :   3F;
  FB0   :   80;
  FB1   :   80;
  FB2   :   C0;
  FB3   :   B0;
  FB4   :   5C;
  FB5   :   2B;
  FB6   :    5;
  FB7   :    0;
  FB8   :    0;
  FB9   :    0;
  FBA   :    0;
  FBB   :    0;
  FBC   :    0;
  FBD   :    0;
  FBE   :    0;
  FBF   :    0;
  FC0   :   7F;
  FC1   :   7F;
  FC2   :   37;
  FC3   :   27;
  FC4   :    3;
  FC5   :   82;
  FC6   :   80;
  FC7   :   C8;
  FC8   :   FF;
  FC9   :   FF;
  FCA   :   FF;
  FCB   :   FF;
  FCC   :   FF;
  FCD   :   7F;
  FCE   :   7F;
  FCF   :   37;
  FD0   :   FF;
  FD1   :   FF;
  FD2   :   FF;
  FD3   :   FF;
  FD4   :   7F;
  FD5   :   7F;
  FD6   :   37;
  FD7   :   27;
  FD8   :   80;
  FD9   :   C8;
  FDA   :   D8;
  FDB   :   FC;
  FDC   :   FD;
  FDD   :   FF;
  FDE   :   FF;
  FDF   :   FF;
  FE0   :   D8;
  FE1   :   FC;
  FE2   :   FD;
  FE3   :   FF;
  FE4   :   FF;
  FE5   :   FF;
  FE6   :   FF;
  FE7   :   FF;
  FE8   :   27;
  FE9   :    3;
  FEA   :    2;
  FEB   :   80;
  FEC   :   80;
  FED   :   C8;
  FEE   :   D8;
  FEF   :   FC;
  FF0   :    3;
  FF1   :   82;
  FF2   :   80;
  FF3   :   C8;
  FF4   :   D8;
  FF5   :   FC;
  FF6   :   FD;
  FF7   :   FF;
  FF8   :   FF;
  FF9   :   7F;
  FFA   :   7F;
  FFB   :   37;
  FFC   :   27;
  FFD   :    2;
  FFE   :    2;
  FFF   :   80;
 1000   :    0;
 1001   :   38;
 1002   :   70;
 1003   :   60;
 1004   :   41;
 1005   :    1;
 1006   :    2;
 1007   :    C;
 1008   :   3C;
 1009   :   7E;
 100A   :   FF;
 100B   :   FF;
 100C   :   FE;
 100D   :   FE;
 100E   :   7C;
 100F   :   30;
 1010   :    0;
 1011   :    0;
 1012   :    0;
 1013   :    0;
 1014   :   7E;
 1015   :   FF;
 1016   :   FF;
 1017   :   7E;
 1018   :    0;
 1019   :    0;
 101A   :    0;
 101B   :    0;
 101C   :    0;
 101D   :    0;
 101E   :    0;
 101F   :    0;
 1020   :    0;
 1021   :    0;
 1022   :    0;
 1023   :    7;
 1024   :   18;
 1025   :   30;
 1026   :   78;
 1027   :   76;
 1028   :    0;
 1029   :    0;
 102A   :    0;
 102B   :    7;
 102C   :   3F;
 102D   :   4F;
 102E   :   E7;
 102F   :   A9;
 1030   :    0;
 1031   :    0;
 1032   :    0;
 1033   :   E0;
 1034   :   18;
 1035   :    4;
 1036   :    2;
 1037   :   C0;
 1038   :    0;
 1039   :    0;
 103A   :    0;
 103B   :   E0;
 103C   :   F8;
 103D   :   FC;
 103E   :   FE;
 103F   :   3F;
 1040   :   77;
 1041   :   4F;
 1042   :   8F;
 1043   :   87;
 1044   :    0;
 1045   :    1;
 1046   :    E;
 1047   :    1;
 1048   :   48;
 1049   :   76;
 104A   :   F2;
 104B   :   F8;
 104C   :   FF;
 104D   :   7E;
 104E   :   31;
 104F   :    E;
 1050   :   E0;
 1051   :   E0;
 1052   :   E0;
 1053   :   C0;
 1054   :    9;
 1055   :   72;
 1056   :   88;
 1057   :   40;
 1058   :   1F;
 1059   :   9F;
 105A   :   9F;
 105B   :   3F;
 105C   :   F6;
 105D   :   8C;
 105E   :   70;
 105F   :   80;
 1060   :    0;
 1061   :    D;
 1062   :   1E;
 1063   :   5F;
 1064   :   9B;
 1065   :   43;
 1066   :    1;
 1067   :    0;
 1068   :    C;
 1069   :   13;
 106A   :   39;
 106B   :   68;
 106C   :   E5;
 106D   :   7C;
 106E   :   3E;
 106F   :    F;
 1070   :    0;
 1071   :   E0;
 1072   :   18;
 1073   :   E4;
 1074   :   F2;
 1075   :   F1;
 1076   :   E1;
 1077   :    0;
 1078   :    0;
 1079   :   E0;
 107A   :   F8;
 107B   :   1C;
 107C   :   CE;
 107D   :   4F;
 107E   :   1F;
 107F   :   FF;
 1080   :   E2;
 1081   :   7C;
 1082   :   7C;
 1083   :   78;
 1084   :   79;
 1085   :   31;
 1086   :   13;
 1087   :    4;
 1088   :   1D;
 1089   :   83;
 108A   :   83;
 108B   :   87;
 108C   :   86;
 108D   :   4E;
 108E   :   2C;
 108F   :   18;
 1090   :   88;
 1091   :   F1;
 1092   :   F1;
 1093   :   E3;
 1094   :   E6;
 1095   :   C6;
 1096   :   4C;
 1097   :   10;
 1098   :   77;
 1099   :    E;
 109A   :    E;
 109B   :   1C;
 109C   :   18;
 109D   :   38;
 109E   :   B0;
 109F   :   60;
 10A0   :    7;
 10A1   :   18;
 10A2   :   20;
 10A3   :   40;
 10A4   :   40;
 10A5   :   79;
 10A6   :   7F;
 10A7   :   7F;
 10A8   :    F;
 10A9   :   3F;
 10AA   :   7F;
 10AB   :   FF;
 10AC   :   FF;
 10AD   :   C6;
 10AE   :   99;
 10AF   :   96;
 10B0   :   F0;
 10B1   :    0;
 10B2   :    0;
 10B3   :    0;
 10B4   :    0;
 10B5   :   39;
 10B6   :   FD;
 10B7   :   FD;
 10B8   :   F0;
 10B9   :   F8;
 10BA   :   FC;
 10BB   :   FE;
 10BC   :   FE;
 10BD   :   C6;
 10BE   :   32;
 10BF   :   D2;
 10C0   :   70;
 10C1   :   40;
 10C2   :   20;
 10C3   :   38;
 10C4   :    F;
 10C5   :    0;
 10C6   :    0;
 10C7   :    0;
 10C8   :   4F;
 10C9   :   7F;
 10CA   :   3F;
 10CB   :   1F;
 10CC   :   10;
 10CD   :    F;
 10CE   :    0;
 10CF   :    0;
 10D0   :   1A;
 10D1   :    2;
 10D2   :    4;
 10D3   :    C;
 10D4   :   E8;
 10D5   :   10;
 10D6   :    0;
 10D7   :    0;
 10D8   :   E4;
 10D9   :   FC;
 10DA   :   F8;
 10DB   :   F0;
 10DC   :   10;
 10DD   :   E0;
 10DE   :    0;
 10DF   :    0;
 10E0   :    F;
 10E1   :   10;
 10E2   :   39;
 10E3   :   7F;
 10E4   :   7F;
 10E5   :   7F;
 10E6   :   A0;
 10E7   :   50;
 10E8   :    F;
 10E9   :   3F;
 10EA   :   66;
 10EB   :   C0;
 10EC   :   D9;
 10ED   :   D6;
 10EE   :   7F;
 10EF   :   BF;
 10F0   :   F0;
 10F1   :    0;
 10F2   :   98;
 10F3   :   FC;
 10F4   :   FC;
 10F5   :   9C;
 10F6   :    1;
 10F7   :    2;
 10F8   :   F0;
 10F9   :   FC;
 10FA   :   66;
 10FB   :    3;
 10FC   :   9B;
 10FD   :   6B;
 10FE   :   FE;
 10FF   :   FD;
 1100   :   30;
 1101   :   3F;
 1102   :   3F;
 1103   :   1F;
 1104   :   1F;
 1105   :    F;
 1106   :    0;
 1107   :    0;
 1108   :   4F;
 1109   :   40;
 110A   :   40;
 110B   :   20;
 110C   :   20;
 110D   :   10;
 110E   :    F;
 110F   :    0;
 1110   :    C;
 1111   :   FC;
 1112   :   FC;
 1113   :   F8;
 1114   :   F8;
 1115   :   F0;
 1116   :    0;
 1117   :    0;
 1118   :   F2;
 1119   :    2;
 111A   :    2;
 111B   :    4;
 111C   :    4;
 111D   :    8;
 111E   :   F0;
 111F   :    0;
 1120   :    0;
 1121   :    0;
 1122   :    0;
 1123   :    0;
 1124   :    7;
 1125   :    8;
 1126   :   E0;
 1127   :   70;
 1128   :    0;
 1129   :    0;
 112A   :    0;
 112B   :    0;
 112C   :    7;
 112D   :   6F;
 112E   :   7F;
 112F   :   8F;
 1130   :    0;
 1131   :    0;
 1132   :    0;
 1133   :    0;
 1134   :   38;
 1135   :   40;
 1136   :    0;
 1137   :   80;
 1138   :    0;
 1139   :    0;
 113A   :    0;
 113B   :    0;
 113C   :   38;
 113D   :   7E;
 113E   :   FF;
 113F   :   7F;
 1140   :   5E;
 1141   :   9E;
 1142   :   8C;
 1143   :   80;
 1144   :    0;
 1145   :    F;
 1146   :    0;
 1147   :    3;
 1148   :   79;
 1149   :   E9;
 114A   :   F3;
 114B   :   FF;
 114C   :   FF;
 114D   :   70;
 114E   :   3F;
 114F   :    0;
 1150   :    1;
 1151   :    1;
 1152   :    1;
 1153   :    2;
 1154   :   62;
 1155   :   84;
 1156   :    8;
 1157   :   F0;
 1158   :   FE;
 1159   :   FE;
 115A   :   FE;
 115B   :   FC;
 115C   :   9C;
 115D   :   78;
 115E   :   F0;
 115F   :    0;
 1160   :    0;
 1161   :   6C;
 1162   :   8F;
 1163   :   9F;
 1164   :   1F;
 1165   :    E;
 1166   :    0;
 1167   :    0;
 1168   :    C;
 1169   :   7E;
 116A   :   F1;
 116B   :   EC;
 116C   :   E4;
 116D   :   71;
 116E   :   3F;
 116F   :    F;
 1170   :    0;
 1171   :   80;
 1172   :   F8;
 1173   :   E4;
 1174   :   E0;
 1175   :   C0;
 1176   :    0;
 1177   :    8;
 1178   :   80;
 1179   :   C0;
 117A   :   38;
 117B   :   9C;
 117C   :   9E;
 117D   :   3F;
 117E   :   FF;
 117F   :   F7;
 1180   :    8;
 1181   :   18;
 1182   :   10;
 1183   :   20;
 1184   :   41;
 1185   :   42;
 1186   :   84;
 1187   :   18;
 1188   :   17;
 1189   :   27;
 118A   :   2F;
 118B   :   5F;
 118C   :   3E;
 118D   :   BC;
 118E   :   78;
 118F   :   60;
 1190   :   21;
 1191   :   61;
 1192   :   43;
 1193   :   82;
 1194   :    4;
 1195   :    8;
 1196   :   10;
 1197   :   60;
 1198   :   5E;
 1199   :   9E;
 119A   :   BC;
 119B   :   7C;
 119C   :   F8;
 119D   :   F0;
 119E   :   E0;
 119F   :   80;
 11A0   :    0;
 11A1   :    0;
 11A2   :   1F;
 11A3   :   63;
 11A4   :   87;
 11A5   :   8F;
 11A6   :    F;
 11A7   :   4F;
 11A8   :    0;
 11A9   :    1;
 11AA   :   1E;
 11AB   :   7D;
 11AC   :   F8;
 11AD   :   F4;
 11AE   :   7C;
 11AF   :   30;
 11B0   :    0;
 11B1   :    0;
 11B2   :   E0;
 11B3   :   F4;
 11B4   :   F6;
 11B5   :   E2;
 11B6   :   C2;
 11B7   :   C0;
 11B8   :    0;
 11B9   :   E0;
 11BA   :   10;
 11BB   :   CC;
 11BC   :   4E;
 11BD   :   1F;
 11BE   :   3F;
 11BF   :   3F;
 11C0   :    E;
 11C1   :   40;
 11C2   :   30;
 11C3   :    C;
 11C4   :    0;
 11C5   :    8;
 11C6   :    3;
 11C7   :    0;
 11C8   :   F1;
 11C9   :   3F;
 11CA   :   4F;
 11CB   :   33;
 11CC   :   1F;
 11CD   :    7;
 11CE   :    0;
 11CF   :    0;
 11D0   :   80;
 11D1   :    1;
 11D2   :    1;
 11D3   :    2;
 11D4   :    4;
 11D5   :   18;
 11D6   :   E0;
 11D7   :    0;
 11D8   :   7F;
 11D9   :   FE;
 11DA   :   FE;
 11DB   :   FC;
 11DC   :   F8;
 11DD   :   E0;
 11DE   :    0;
 11DF   :    0;
 11E0   :   1C;
 11E1   :   63;
 11E2   :   80;
 11E3   :   80;
 11E4   :   86;
 11E5   :   4F;
 11E6   :   4F;
 11E7   :    7;
 11E8   :   1C;
 11E9   :   7F;
 11EA   :   FF;
 11EB   :   FF;
 11EC   :   F9;
 11ED   :   72;
 11EE   :   76;
 11EF   :   38;
 11F0   :   80;
 11F1   :   60;
 11F2   :    C;
 11F3   :   1E;
 11F4   :   DE;
 11F5   :   FC;
 11F6   :   F0;
 11F7   :   F0;
 11F8   :   80;
 11F9   :   EC;
 11FA   :   F2;
 11FB   :   E9;
 11FC   :   39;
 11FD   :   42;
 11FE   :   CF;
 11FF   :    F;
 1200   :    6;
 1201   :    0;
 1202   :    0;
 1203   :   38;
 1204   :    0;
 1205   :    0;
 1206   :   41;
 1207   :   1E;
 1208   :   79;
 1209   :   3F;
 120A   :   1F;
 120B   :    7;
 120C   :   7F;
 120D   :   FF;
 120E   :   3E;
 120F   :    0;
 1210   :   C1;
 1211   :    1;
 1212   :    1;
 1213   :    2;
 1214   :    4;
 1215   :    8;
 1216   :   30;
 1217   :   C0;
 1218   :   3E;
 1219   :   FE;
 121A   :   FE;
 121B   :   FC;
 121C   :   F8;
 121D   :   F0;
 121E   :   C0;
 121F   :    0;
 1220   :    0;
 1221   :    0;
 1222   :    0;
 1223   :   3C;
 1224   :   40;
 1225   :   F3;
 1226   :   FF;
 1227   :   FF;
 1228   :    0;
 1229   :    0;
 122A   :    0;
 122B   :   3F;
 122C   :   7F;
 122D   :   BF;
 122E   :   80;
 122F   :   80;
 1230   :    0;
 1231   :    0;
 1232   :    0;
 1233   :   F0;
 1234   :    0;
 1235   :   CE;
 1236   :   FE;
 1237   :   FE;
 1238   :    0;
 1239   :    0;
 123A   :    0;
 123B   :   FC;
 123C   :   FE;
 123D   :   FC;
 123E   :    1;
 123F   :    1;
 1240   :   99;
 1241   :   80;
 1242   :   80;
 1243   :   80;
 1244   :   80;
 1245   :   40;
 1246   :   20;
 1247   :    0;
 1248   :   E6;
 1249   :   FF;
 124A   :   FF;
 124B   :   FF;
 124C   :   FF;
 124D   :   7F;
 124E   :   3F;
 124F   :   1F;
 1250   :   9C;
 1251   :    0;
 1252   :    0;
 1253   :    0;
 1254   :    0;
 1255   :    0;
 1256   :    0;
 1257   :    0;
 1258   :   63;
 1259   :   FF;
 125A   :   FF;
 125B   :   FF;
 125C   :   FF;
 125D   :   FE;
 125E   :   FC;
 125F   :   F8;
 1260   :    F;
 1261   :   18;
 1262   :   30;
 1263   :   40;
 1264   :   40;
 1265   :   40;
 1266   :   B9;
 1267   :   FF;
 1268   :    F;
 1269   :   1F;
 126A   :   3F;
 126B   :   7F;
 126C   :   7F;
 126D   :   7F;
 126E   :   D6;
 126F   :   99;
 1270   :   F0;
 1271   :   80;
 1272   :    0;
 1273   :    0;
 1274   :    0;
 1275   :    0;
 1276   :   9C;
 1277   :   FE;
 1278   :   F0;
 1279   :   F8;
 127A   :   FC;
 127B   :   FE;
 127C   :   FE;
 127D   :   FE;
 127E   :   6B;
 127F   :   99;
 1280   :   FF;
 1281   :   B9;
 1282   :   80;
 1283   :   80;
 1284   :   80;
 1285   :   40;
 1286   :   20;
 1287   :    0;
 1288   :   80;
 1289   :   C6;
 128A   :   FF;
 128B   :   FF;
 128C   :   FF;
 128D   :   7F;
 128E   :   3F;
 128F   :   1F;
 1290   :   FE;
 1291   :   9E;
 1292   :    0;
 1293   :    0;
 1294   :    0;
 1295   :    0;
 1296   :    0;
 1297   :    0;
 1298   :    1;
 1299   :   63;
 129A   :   FF;
 129B   :   FF;
 129C   :   FF;
 129D   :   FE;
 129E   :   FC;
 129F   :   F8;
 12A0   :    7;
 12A1   :    D;
 12A2   :    F;
 12A3   :   18;
 12A4   :   F0;
 12A5   :   70;
 12A6   :   30;
 12A7   :    0;
 12A8   :   3F;
 12A9   :   1E;
 12AA   :    8;
 12AB   :   18;
 12AC   :   D0;
 12AD   :   70;
 12AE   :   30;
 12AF   :    0;
 12B0   :    3;
 12B1   :   3B;
 12B2   :   6F;
 12B3   :   7B;
 12B4   :   C0;
 12B5   :   80;
 12B6   :   80;
 12B7   :   80;
 12B8   :   FD;
 12B9   :   FD;
 12BA   :   F1;
 12BB   :   43;
 12BC   :   C0;
 12BD   :   80;
 12BE   :   80;
 12BF   :   80;
 12C0   :    5;
 12C1   :    E;
 12C2   :   1C;
 12C3   :   38;
 12C4   :   F8;
 12C5   :   FC;
 12C6   :   78;
 12C7   :   60;
 12C8   :   FE;
 12C9   :   7C;
 12CA   :   38;
 12CB   :   18;
 12CC   :   E8;
 12CD   :   9C;
 12CE   :   78;
 12CF   :   60;
 12D0   :   10;
 12D1   :   19;
 12D2   :   F0;
 12D3   :   F0;
 12D4   :   30;
 12D5   :    0;
 12D6   :    0;
 12D7   :    0;
 12D8   :    F;
 12D9   :   16;
 12DA   :   D0;
 12DB   :   F0;
 12DC   :   30;
 12DD   :    0;
 12DE   :    0;
 12DF   :    0;
 12E0   :   17;
 12E1   :   1F;
 12E2   :   3F;
 12E3   :    3;
 12E4   :    3;
 12E5   :    0;
 12E6   :    0;
 12E7   :    0;
 12E8   :   FB;
 12E9   :   F7;
 12EA   :   DD;
 12EB   :    3;
 12EC   :    3;
 12ED   :    0;
 12EE   :    0;
 12EF   :    0;
 12F0   :   C8;
 12F1   :   D0;
 12F2   :   FC;
 12F3   :   EC;
 12F4   :   C1;
 12F5   :    0;
 12F6   :    0;
 12F7   :    0;
 12F8   :   DF;
 12F9   :   DF;
 12FA   :   BF;
 12FB   :   E3;
 12FC   :   C6;
 12FD   :    0;
 12FE   :    0;
 12FF   :    0;
 1300   :   8A;
 1301   :   3F;
 1302   :    3;
 1303   :    3;
 1304   :    1;
 1305   :    0;
 1306   :    0;
 1307   :    0;
 1308   :   72;
 1309   :   CF;
 130A   :    3;
 130B   :    3;
 130C   :    1;
 130D   :    0;
 130E   :    0;
 130F   :    0;
 1310   :   19;
 1311   :   1A;
 1312   :   3E;
 1313   :   36;
 1314   :   FE;
 1315   :   FE;
 1316   :   18;
 1317   :    0;
 1318   :   FE;
 1319   :   74;
 131A   :   32;
 131B   :   36;
 131C   :   D2;
 131D   :   F6;
 131E   :   18;
 131F   :    0;
 1320   :   CC;
 1321   :   C8;
 1322   :   E0;
 1323   :   62;
 1324   :   63;
 1325   :    3;
 1326   :    1;
 1327   :    0;
 1328   :   DF;
 1329   :   DF;
 132A   :   DF;
 132B   :   7F;
 132C   :   6E;
 132D   :    7;
 132E   :    1;
 132F   :    0;
 1330   :   22;
 1331   :   34;
 1332   :   38;
 1333   :   1F;
 1334   :    3;
 1335   :    6;
 1336   :    E;
 1337   :    C;
 1338   :   FC;
 1339   :   E8;
 133A   :   70;
 133B   :   1F;
 133C   :    3;
 133D   :    6;
 133E   :    E;
 133F   :    C;
 1340   :   38;
 1341   :   44;
 1342   :   92;
 1343   :   FE;
 1344   :   FE;
 1345   :   92;
 1346   :   44;
 1347   :   38;
 1348   :    0;
 1349   :   38;
 134A   :   6C;
 134B   :   6C;
 134C   :   6C;
[...]
 7B1F   :    0;
 7B20   :    0;
 7B21   :    0;
 7B22   :    1;
 7B23   :    0;
 7B24   :    0;
 7B25   :    0;
 7B26   :    0;
 7B27   :    0;
 7B28   :    1;
 7B29   :    1;
 7B2A   :    0;
 7B2B   :    0;
 7B2C   :    0;
 7B2D   :    0;
 7B2E   :    0;
 7B2F   :    0;
 7B30   :    0;
 7B31   :    0;
 7B32   :    2;
 7B33   :    0;
 7B34   :   84;
 7B35   :   78;
 7B36   :    0;
 7B37   :    0;
 7B38   :   FE;
 7B39   :   FE;
 7B3A   :   FC;
 7B3B   :   FC;
 7B3C   :   78;
 7B3D   :    0;
 7B3E   :    0;
 7B3F   :    0;
 7B40   :    0;
 7B41   :   38;
 7B42   :   70;
 7B43   :   60;
 7B44   :   41;
 7B45   :    1;
 7B46   :    2;
 7B47   :    C;
 7B48   :   3C;
 7B49   :   7E;
 7B4A   :   FF;
 7B4B   :   FF;
 7B4C   :   FE;
 7B4D   :   FE;
 7B4E   :   7C;
 7B4F   :   30;
 7B50   :    0;
 7B51   :    0;
 7B52   :   18;
 7B53   :   30;
 7B54   :   21;
 7B55   :    1;
 7B56   :    2;
 7B57   :    C;
 7B58   :    0;
 7B59   :   1C;
 7B5A   :   3E;
 7B5B   :   7F;
 7B5C   :   7E;
 7B5D   :   7E;
 7B5E   :   3C;
 7B5F   :   10;
 7B60   :    0;
 7B61   :    0;
 7B62   :    0;
 7B63   :   18;
 7B64   :   10;
 7B65   :    2;
 7B66   :    4;
 7B67   :    0;
 7B68   :    0;
 7B69   :    0;
 7B6A   :   1C;
 7B6B   :   3E;
 7B6C   :   3E;
 7B6D   :   3C;
 7B6E   :   18;
 7B6F   :    0;
 7B70   :    0;
 7B71   :    0;
 7B72   :    0;
 7B73   :   10;
 7B74   :    4;
 7B75   :    8;
 7B76   :    0;
 7B77   :    0;
 7B78   :    0;
 7B79   :    0;
 7B7A   :   18;
 7B7B   :   3C;
 7B7C   :   38;
 7B7D   :   10;
 7B7E   :    0;
 7B7F   :    0;
 7B80   :    0;
 7B81   :    0;
 7B82   :    0;
 7B83   :   10;
 7B84   :    0;
 7B85   :    0;
 7B86   :    0;
 7B87   :    0;
 7B88   :    0;
 7B89   :    0;
 7B8A   :    0;
 7B8B   :    0;
 7B8C   :    0;
 7B8D   :    0;
 7B8E   :    0;
 7B8F   :    0;
 7B90   :    0;
 7B91   :    0;
 7B92   :   10;
 7B93   :   28;
 7B94   :   10;
 7B95   :    0;
 7B96   :    0;
 7B97   :    0;
 7B98   :    0;
 7B99   :    0;
 7B9A   :    0;
 7B9B   :   10;
 7B9C   :    0;
 7B9D   :    0;
 7B9E   :    0;
 7B9F   :    0;
 7BA0   :    0;
 7BA1   :   10;
 7BA2   :    0;
 7BA3   :   54;
 7BA4   :    0;
 7BA5   :   10;
 7BA6   :   10;
 7BA7   :    0;
 7BA8   :    0;
 7BA9   :    0;
 7BAA   :   10;
 7BAB   :   38;
 7BAC   :   10;
 7BAD   :    0;
 7BAE   :    0;
 7BAF   :    0;
 7BB0   :   10;
 7BB1   :    0;
 7BB2   :   10;
 7BB3   :   BA;
 7BB4   :   10;
 7BB5   :    0;
 7BB6   :   10;
 7BB7   :   10;
 7BB8   :    0;
 7BB9   :   10;
 7BBA   :   10;
 7BBB   :   7C;
 7BBC   :   10;
 7BBD   :   10;
 7BBE   :    0;
 7BBF   :    0;
 7BC0   :    0;
 7BC1   :    0;
 7BC2   :    0;
 7BC3   :   1F;
 7BC4   :   E0;
 7BC5   :    0;
 7BC6   :    F;
 7BC7   :   F0;
 7BC8   :    0;
 7BC9   :    0;
 7BCA   :    0;
 7BCB   :    0;
 7BCC   :   1F;
 7BCD   :   FF;
 7BCE   :   FF;
 7BCF   :   F0;
 7BD0   :    1;
 7BD1   :    E;
 7BD2   :   30;
 7BD3   :   C0;
 7BD4   :    7;
 7BD5   :   18;
 7BD6   :   60;
 7BD7   :   80;
 7BD8   :    0;
 7BD9   :    1;
 7BDA   :    F;
 7BDB   :   3F;
 7BDC   :   FF;
 7BDD   :   F8;
 7BDE   :   E0;
 7BDF   :   80;
 7BE0   :    1;
 7BE1   :    2;
 7BE2   :    4;
 7BE3   :    8;
 7BE4   :   11;
 7BE5   :   22;
 7BE6   :   44;
 7BE7   :   88;
 7BE8   :    0;
 7BE9   :    1;
 7BEA   :    3;
 7BEB   :    7;
 7BEC   :    F;
 7BED   :   1E;
 7BEE   :   3C;
 7BEF   :   78;
 7BF0   :   11;
 7BF1   :   22;
 7BF2   :   22;
 7BF3   :   24;
 7BF4   :   44;
 7BF5   :   48;
 7BF6   :   48;
 7BF7   :   88;
 7BF8   :    F;
 7BF9   :   1E;
 7BFA   :   1E;
 7BFB   :   1C;
 7BFC   :   3C;
 7BFD   :   38;
 7BFE   :   38;
 7BFF   :   78;
 7C00   :   48;
 7C01   :   48;
 7C02   :   48;
 7C03   :   88;
 7C04   :   90;
 7C05   :   90;
 7C06   :   90;
 7C07   :   90;
 7C08   :   38;
 7C09   :   38;
 7C0A   :   38;
 7C0B   :   78;
 7C0C   :   70;
 7C0D   :   70;
 7C0E   :   70;
 7C0F   :   70;
 7C10   :   90;
 7C11   :   90;
 7C12   :   90;
 7C13   :   90;
 7C14   :   90;
 7C15   :   90;
 7C16   :   90;
 7C17   :   90;
 7C18   :   70;
 7C19   :   70;
 7C1A   :   70;
 7C1B   :   70;
 7C1C   :   70;
 7C1D   :   70;
 7C1E   :   70;
 7C1F   :   70;
 7C20   :    0;
 7C21   :    1;
 7C22   :    3;
 7C23   :    6;
 7C24   :    D;
 7C25   :    C;
 7C26   :   14;
 7C27   :   E0;
 7C28   :    0;
 7C29   :    0;
 7C2A   :    1;
 7C2B   :    3;
 7C2C   :    7;
 7C2D   :    6;
 7C2E   :    E;
 7C2F   :   1F;
 7C30   :    0;
 7C31   :   F8;
 7C32   :    4;
 7C33   :    3;
 7C34   :   F9;
 7C35   :   E0;
 7C36   :   38;
 7C37   :    0;
 7C38   :    0;
 7C39   :    0;
 7C3A   :    0;
 7C3B   :    0;
 7C3C   :   FB;
 7C3D   :   E3;
 7C3E   :   3F;
 7C3F   :    7;
 7C40   :    0;
 7C41   :    0;
 7C42   :    0;
 7C43   :   FE;
 7C44   :   FF;
 7C45   :    1;
 7C46   :    0;
 7C47   :    0;
 7C48   :    0;
 7C49   :    0;
 7C4A   :    0;
 7C4B   :    0;
 7C4C   :   FE;
 7C4D   :   FF;
 7C4E   :   FF;
 7C4F   :   FF;
 7C50   :    0;
 7C51   :    0;
 7C52   :    0;
 7C53   :    0;
 7C54   :   E0;
 7C55   :   F8;
 7C56   :    6;
 7C57   :    3;
 7C58   :    0;
 7C59   :    0;
 7C5A   :    0;
 7C5B   :    0;
 7C5C   :    0;
 7C5D   :   E0;
 7C5E   :   F8;
 7C5F   :   FC;
 7C60   :    3;
 7C61   :    4;
 7C62   :    B;
 7C63   :   17;
 7C64   :   2F;
 7C65   :   5F;
 7C66   :   5E;
 7C67   :   9C;
 7C68   :    0;
 7C69   :    3;
 7C6A   :    7;
 7C6B   :    F;
 7C6C   :   1F;
 7C6D   :   3F;
 7C6E   :   3F;
 7C6F   :   7F;
 7C70   :    8;
 7C71   :   D0;
 7C72   :   90;
 7C73   :   91;
 7C74   :   93;
 7C75   :   93;
 7C76   :   10;
 7C77   :   18;
 7C78   :   FF;
 7C79   :   FC;
 7C7A   :   F8;
 7C7B   :   F9;
 7C7C   :   FB;
 7C7D   :   FB;
 7C7E   :   FC;
 7C7F   :   FC;
 7C80   :    3;
 7C81   :    7;
 7C82   :    6;
 7C83   :   F4;
 7C84   :   84;
 7C85   :   C0;
 7C86   :   E0;
 7C87   :    0;
 7C88   :   FF;
 7C89   :   1F;
 7C8A   :    F;
 7C8B   :   FF;
 7C8C   :   8F;
 7C8D   :   CF;
 7C8E   :   FF;
 7C8F   :   1F;
 7C90   :   FF;
 7C91   :    0;
 7C92   :    0;
 7C93   :    0;
 7C94   :    0;
 7C95   :    0;
 7C96   :    0;
 7C97   :    2;
 7C98   :   FF;
 7C99   :   FF;
 7C9A   :   FF;
 7C9B   :   FF;
 7C9C   :   FF;
 7C9D   :   FF;
 7C9E   :   FF;
 7C9F   :   FD;
 7CA0   :   C1;
 7CA1   :   61;
 7CA2   :    5;
 7CA3   :    3;
 7CA4   :    7;
 7CA5   :   2F;
 7CA6   :   5F;
 7CA7   :   BE;
 7CA8   :   FE;
 7CA9   :   FC;
 7CAA   :   FA;
 7CAB   :   F4;
 7CAC   :   C0;
 7CAD   :   D0;
 7CAE   :   A0;
 7CAF   :   44;
 7CB0   :   80;
 7CB1   :   C0;
 7CB2   :   C0;
 7CB3   :   C0;
 7CB4   :   C0;
 7CB5   :   C0;
 7CB6   :   C0;
 7CB7   :   80;
 7CB8   :    0;
 7CB9   :    0;
 7CBA   :    0;
 7CBB   :   80;
 7CBC   :   80;
 7CBD   :   80;
 7CBE   :   80;
 7CBF   :    0;
 7CC0   :   B8;
 7CC1   :   B8;
 7CC2   :   B0;
 7CC3   :   B0;
 7CC4   :   B0;
 7CC5   :   90;
 7CC6   :   90;
 7CC7   :   50;
 7CC8   :   7F;
 7CC9   :   7F;
 7CCA   :   7F;
 7CCB   :   7F;
 7CCC   :   7F;
 7CCD   :   7F;
 7CCE   :   7F;
 7CCF   :   3F;
 7CD0   :    8;
 7CD1   :    0;
 7CD2   :    1;
 7CD3   :    5;
 7CD4   :    4;
 7CD5   :    5;
 7CD6   :   52;
 7CD7   :   32;
 7CD8   :   FE;
 7CD9   :   FE;
 7CDA   :   FE;
 7CDB   :   F8;
 7CDC   :   F9;
 7CDD   :   F9;
 7CDE   :   AC;
 7CDF   :   CC;
 7CE0   :    0;
 7CE1   :   2A;
 7CE2   :   55;
 7CE3   :   FF;
 7CE4   :   FF;
 7CE5   :   50;
 7CE6   :   A8;
 7CE7   :   55;
 7CE8   :   3F;
 7CE9   :   55;
 7CEA   :   AA;
 7CEB   :    0;
 7CEC   :   80;
 7CED   :   FF;
 7CEE   :   FF;
 7CEF   :   7F;
 7CF0   :   15;
 7CF1   :   AF;
 7CF2   :   7F;
 7CF3   :   FE;
 7CF4   :   FB;
 7CF5   :   1C;
 7CF6   :    0;
 7CF7   :    3;
 7CF8   :   EA;
 7CF9   :   50;
 7CFA   :   80;
 7CFB   :    0;
 7CFC   :    0;
 7CFD   :   83;
 7CFE   :   FF;
 7CFF   :   FC;
 7D00   :   FF;
 7D01   :   FE;
 7D02   :   BF;
 7D03   :   FC;
 7D04   :   38;
 7D05   :   59;
 7D06   :   92;
 7D07   :    1;
 7D08   :    C;
 7D09   :   3D;
 7D0A   :   3C;
 7D0B   :   3C;
 7D0C   :   D8;
 7D0D   :   98;
 7D0E   :   11;
 7D0F   :    0;
 7D10   :   C0;
 7D11   :   30;
 7D12   :   88;
 7D13   :   74;
 7D14   :   1A;
 7D15   :   AA;
 7D16   :   6A;
 7D17   :   2A;
 7D18   :    0;
 7D19   :   C0;
 7D1A   :   70;
 7D1B   :    8;
 7D1C   :    4;
 7D1D   :   14;
 7D1E   :   94;
 7D1F   :   D4;
 7D20   :   48;
 7D21   :   28;
 7D22   :   20;
 7D23   :   10;
 7D24   :   10;
 7D25   :    8;
 7D26   :    8;
 7D27   :    4;
 7D28   :   3F;
 7D29   :   1F;
 7D2A   :   1F;
 7D2B   :    F;
 7D2C   :    F;
 7D2D   :    7;
 7D2E   :    7;
 7D2F   :    3;
 7D30   :   71;
 7D31   :   39;
 7D32   :   58;
 7D33   :   3C;
 7D34   :   1F;
 7D35   :   1B;
 7D36   :   1F;
 7D37   :   1F;
 7D38   :   8E;
 7D39   :   C6;
 7D3A   :   A7;
 7D3B   :   C3;
 7D3C   :   E0;
 7D3D   :   F4;
 7D3E   :   FA;
 7D3F   :   FF;
 7D40   :   3F;
 7D41   :   9F;
 7D42   :   CF;
 7D43   :   67;
 7D44   :   31;
 7D45   :   98;
 7D46   :   CC;
 7D47   :   E7;
 7D48   :   3F;
 7D49   :   1F;
 7D4A   :    F;
 7D4B   :   87;
 7D4C   :   C1;
 7D4D   :   60;
 7D4E   :   30;
 7D4F   :   18;
 7D50   :   CC;
 7D51   :   C6;
 7D52   :   E6;
 7D53   :   E3;
 7D54   :   E3;
 7D55   :   41;
 7D56   :    1;
 7D57   :    1;
 7D58   :   C0;
 7D59   :   C0;
 7D5A   :   E0;
 7D5B   :   E0;
 7D5C   :   E1;
 7D5D   :   40;
 7D5E   :    0;
 7D5F   :    0;
 7D60   :    0;
 7D61   :    0;
 7D62   :   80;
 7D63   :   C0;
 7D64   :   C0;
 7D65   :   C0;
 7D66   :   80;
 7D67   :   80;
 7D68   :    0;
 7D69   :    0;
 7D6A   :    0;
 7D6B   :   80;
 7D6C   :   80;
 7D6D   :   80;
 7D6E   :    0;
 7D6F   :    0;
 7D70   :   84;
 7D71   :   78;
 7D72   :    0;
 7D73   :    0;
 7D74   :    0;
 7D75   :    0;
 7D76   :    0;
 7D77   :    0;
 7D78   :   78;
 7D79   :    0;
 7D7A   :    0;
 7D7B   :    0;
 7D7C   :    0;
 7D7D   :    0;
 7D7E   :    0;
 7D7F   :    0;
 7D80   :    4;
 7D81   :    2;
 7D82   :    2;
 7D83   :    1;
 7D84   :    0;
 7D85   :    0;
 7D86   :    0;
 7D87   :    0;
 7D88   :    3;
 7D89   :    1;
 7D8A   :    1;
 7D8B   :    0;
 7D8C   :    0;
 7D8D   :    0;
 7D8E   :    0;
 7D8F   :    0;
 7D90   :    F;
 7D91   :    F;
 7D92   :    F;
 7D93   :    F;
 7D94   :    5;
 7D95   :   87;
 7D96   :   83;
 7D97   :   87;
 7D98   :   F1;
 7D99   :   FE;
 7D9A   :   FF;
 7D9B   :   FF;
 7D9C   :   FF;
 7D9D   :   78;
 7D9E   :   7F;
 7D9F   :   7F;
 7DA0   :   F1;
 7DA1   :   FC;
 7DA2   :   FF;
 7DA3   :   FB;
 7DA4   :   55;
 7DA5   :   AB;
 7DA6   :   FF;
 7DA7   :   FF;
 7DA8   :   8E;
 7DA9   :    3;
 7DAA   :   F8;
 7DAB   :   FF;
 7DAC   :   FE;
 7DAD   :   7E;
 7DAE   :   81;
 7DAF   :   FF;
 7DB0   :   F1;
 7DB1   :   61;
 7DB2   :   1F;
 7DB3   :   E1;
 7DB4   :   BE;
 7DB5   :   E0;
 7DB6   :   F0;
 7DB7   :   78;
 7DB8   :   F0;
 7DB9   :   A0;
 7DBA   :   E0;
 7DBB   :   1E;
 7DBC   :    0;
 7DBD   :    0;
 7DBE   :   80;
 7DBF   :   C0;
 7DC0   :   87;
 7DC1   :   87;
 7DC2   :   87;
 7DC3   :   8F;
 7DC4   :   8F;
 7DC5   :   7F;
 7DC6   :    F;
 7DC7   :    0;
 7DC8   :   7F;
 7DC9   :   79;
 7DCA   :   7E;
 7DCB   :   7F;
 7DCC   :   7F;
 7DCD   :    F;
 7DCE   :    0;
 7DCF   :    0;
 7DD0   :   FF;
 7DD1   :   7F;
 7DD2   :   AA;
 7DD3   :   F5;
 7DD4   :   FF;
 7DD5   :   FF;
 7DD6   :   FF;
 7DD7   :   FF;
 7DD8   :   FF;
 7DD9   :   FF;
 7DDA   :   7F;
 7DDB   :   8E;
 7DDC   :   F0;
 7DDD   :   FF;
 7DDE   :   FF;
 7DDF   :    0;
 7DE0   :   B8;
 7DE1   :   78;
 7DE2   :   F0;
 7DE3   :   F8;
 7DE4   :   F8;
 7DE5   :   D8;
 7DE6   :   F0;
 7DE7   :    0;
 7DE8   :   C0;
 7DE9   :   C0;
 7DEA   :   80;
 7DEB   :    0;
 7DEC   :    0;
 7DED   :   C0;
 7DEE   :    0;
 7DEF   :    0;
 7DF0   :    0;
 7DF1   :    0;
 7DF2   :    0;
 7DF3   :    0;
 7DF4   :    0;
 7DF5   :    3;
 7DF6   :    C;
 7DF7   :   33;
 7DF8   :    0;
 7DF9   :    0;
 7DFA   :    0;
 7DFB   :    0;
 7DFC   :    0;
 7DFD   :    0;
 7DFE   :    3;
 7DFF   :    F;
 7E00   :    C;
 7E01   :   1F;
 7E02   :   27;
 7E03   :   53;
 7E04   :   B8;
 7E05   :   58;
 7E06   :   90;
 7E07   :   10;
 7E08   :    0;
 7E09   :    C;
 7E0A   :   1E;
 7E0B   :   1E;
 7E0C   :   3F;
 7E0D   :   5F;
 7E0E   :   97;
 7E0F   :   97;
 7E10   :    0;
 7E11   :   FF;
 7E12   :   3F;
 7E13   :    0;
 7E14   :   3E;
 7E15   :   FF;
 7E16   :    3;
 7E17   :   F0;
 7E18   :    0;
 7E19   :    0;
 7E1A   :   FF;
 7E1B   :   FF;
 7E1C   :   FD;
 7E1D   :   FE;
 7E1E   :   FF;
 7E1F   :   FF;
 7E20   :    0;
 7E21   :   80;
 7E22   :   F8;
 7E23   :   7E;
 7E24   :    7;
 7E25   :    1;
 7E26   :   80;
 7E27   :   40;
 7E28   :    0;
 7E29   :    0;
 7E2A   :   80;
 7E2B   :   F8;
 7E2C   :   FE;
 7E2D   :   FE;
 7E2E   :   7F;
 7E2F   :   BF;
 7E30   :    0;
 7E31   :    0;
 7E32   :    0;
 7E33   :    0;
 7E34   :    0;
 7E35   :   80;
 7E36   :   C0;
 7E37   :   60;
 7E38   :    0;
 7E39   :    0;
 7E3A   :    0;
 7E3B   :    0;
 7E3C   :    0;
 7E3D   :    0;
 7E3E   :    0;
 7E3F   :   80;
 7E40   :    0;
 7E41   :    1;
 7E42   :    2;
 7E43   :    5;
 7E44   :    B;
 7E45   :    B;
 7E46   :    4;
 7E47   :    2;
 7E48   :    0;
 7E49   :    0;
 7E4A   :    1;
 7E4B   :    3;
 7E4C   :    7;
 7E4D   :    7;
 7E4E   :    3;
 7E4F   :    1;
 7E50   :   CF;
 7E51   :   3F;
 7E52   :   FF;
 7E53   :   B8;
 7E54   :   60;
 7E55   :    0;
 7E56   :    0;
 7E57   :    0;
 7E58   :   3F;
 7E59   :   FF;
 7E5A   :   FF;
 7E5B   :   BF;
 7E5C   :   7F;
 7E5D   :   FF;
 7E5E   :   E7;
 7E5F   :   FF;
 7E60   :   88;
 7E61   :   89;
 7E62   :   31;
 7E63   :   C0;
 7E64   :    0;
 7E65   :    0;
 7E66   :    0;
 7E67   :    0;
 7E68   :   FC;
 7E69   :   FD;
 7E6A   :   FD;
 7E6B   :   FF;
 7E6C   :   FF;
 7E6D   :   FF;
 7E6E   :   FF;
 7E6F   :   FF;
 7E70   :   F0;
 7E71   :   30;
 7E72   :   30;
 7E73   :   60;
 7E74   :   C0;
 7E75   :    0;
 7E76   :    0;
 7E77   :    0;
 7E78   :   FF;
 7E79   :   33;
 7E7A   :   33;
 7E7B   :   63;
 7E7C   :   C7;
 7E7D   :   FF;
 7E7E   :   FF;
 7E7F   :   FF;
 7E80   :   40;
 7E81   :    0;
 7E82   :    0;
 7E83   :    0;
 7E84   :    0;
 7E85   :    0;
 7E86   :    0;
 7E87   :    0;
 7E88   :   BF;
 7E89   :   FF;
 7E8A   :   FF;
 7E8B   :   FF;
 7E8C   :   FF;
 7E8D   :   FF;
 7E8E   :   FF;
 7E8F   :   FF;
 7E90   :   30;
 7E91   :   18;
 7E92   :    C;
 7E93   :    E;
 7E94   :    E;
 7E95   :    4;
 7E96   :    D;
 7E97   :    3;
 7E98   :   C0;
 7E99   :   E0;
 7E9A   :   F0;
 7E9B   :   F0;
 7E9C   :   F0;
 7E9D   :   F8;
 7E9E   :   F0;
 7E9F   :   F8;
 7EA0   :    3;
 7EA1   :    3;
 7EA2   :    1;
 7EA3   :    0;
 7EA4   :    0;
 7EA5   :    0;
 7EA6   :    0;
 7EA7   :    0;
 7EA8   :    1;
 7EA9   :    1;
 7EAA   :    0;
 7EAB   :    0;
 7EAC   :    0;
 7EAD   :    0;
 7EAE   :    0;
 7EAF   :    0;
 7EB0   :   80;
 7EB1   :   F0;
 7EB2   :    E;
 7EB3   :    F;
 7EB4   :    F;
 7EB5   :    F;
 7EB6   :    7;
 7EB7   :    3;
 7EB8   :   FF;
 7EB9   :    F;
 7EBA   :    7;
 7EBB   :    7;
 7EBC   :    7;
 7EBD   :    7;
 7EBE   :    2;
 7EBF   :    0;
 7EC0   :    0;
 7EC1   :    0;
 7EC2   :    0;
 7EC3   :   C3;
 7EC4   :   C7;
 7EC5   :   8F;
 7EC6   :   9F;
 7EC7   :   1F;
 7EC8   :   FF;
 7EC9   :   FF;
 7ECA   :   FF;
 7ECB   :   80;
 7ECC   :   21;
 7ECD   :   43;
 7ECE   :   46;
 7ECF   :   8C;
 7ED0   :    0;
 7ED1   :    8;
 7ED2   :   F8;
 7ED3   :   F8;
 7ED4   :   F0;
 7ED5   :   E1;
 7ED6   :   C1;
 7ED7   :   83;
 7ED8   :   FE;
 7ED9   :   F0;
 7EDA   :    0;
 7EDB   :   E1;
 7EDC   :   C3;
 7EDD   :    2;
 7EDE   :    6;
 7EDF   :    C;
 7EE0   :   20;
 7EE1   :   30;
 7EE2   :   7E;
 7EE3   :   7E;
 7EE4   :   FD;
 7EE5   :   EA;
 7EE6   :   D4;
 7EE7   :   A0;
 7EE8   :   DF;
 7EE9   :   CF;
 7EEA   :   81;
 7EEB   :   81;
 7EEC   :    2;
 7EED   :   15;
 7EEE   :   2B;
 7EEF   :   5F;
 7EF0   :    D;
 7EF1   :   13;
 7EF2   :    E;
 7EF3   :   1A;
 7EF4   :   26;
 7EF5   :   5C;
 7EF6   :   34;
 7EF7   :   68;
 7EF8   :   F0;
 7EF9   :   E8;
 7EFA   :   F0;
 7EFB   :   E0;
 7EFC   :   D0;
 7EFD   :   A0;
 7EFE   :   C0;
 7EFF   :   80;
 7F00   :    7;
 7F01   :    F;
 7F02   :    7;
 7F03   :    3;
 7F04   :    3;
 7F05   :    3;
 7F06   :    1;
 7F07   :   33;
 7F08   :    0;
 7F09   :    6;
 7F0A   :    3;
 7F0B   :    1;
 7F0C   :    1;
 7F0D   :    1;
 7F0E   :    0;
 7F0F   :    0;
 7F10   :   1F;
 7F11   :   1E;
 7F12   :   10;
 7F13   :   34;
 7F14   :   26;
 7F15   :   24;
 7F16   :   63;
 7F17   :   CF;
 7F18   :   88;
 7F19   :   98;
 7F1A   :   90;
 7F1B   :   B5;
 7F1C   :   27;
 7F1D   :   27;
 7F1E   :   FD;
 7F1F   :   F7;
 7F20   :    7;
 7F21   :    F;
 7F22   :   1F;
 7F23   :   3F;
 7F24   :   7F;
 7F25   :   E0;
 7F26   :   FF;
 7F27   :   FF;
 7F28   :   18;
 7F29   :   31;
 7F2A   :   62;
 7F2B   :   C7;
 7F2C   :   9F;
 7F2D   :   9F;
 7F2E   :   E0;
 7F2F   :   FF;
 7F30   :   40;
 7F31   :   C1;
 7F32   :   E3;
 7F33   :   F7;
 7F34   :   DB;
 7F35   :   36;
 7F36   :   CF;
 7F37   :   DE;
 7F38   :   BF;
 7F39   :   7E;
 7F3A   :   FC;
 7F3B   :   F8;
 7F3C   :   E4;
 7F3D   :   C8;
 7F3E   :   30;
 7F3F   :   E0;
 7F40   :   D8;
 7F41   :   B0;
 7F42   :   D0;
 7F43   :   A0;
 7F44   :   60;
 7F45   :   C0;
 7F46   :   40;
 7F47   :   80;
 7F48   :    0;
 7F49   :    0;
 7F4A   :    0;
 7F4B   :    0;
 7F4C   :    0;
 7F4D   :    0;
 7F4E   :    0;
 7F4F   :    0;
 7F50   :   7F;
 7F51   :   3F;
 7F52   :   7F;
 7F53   :   3C;
 7F54   :    0;
 7F55   :    0;
 7F56   :    0;
 7F57   :    0;
 7F58   :   33;
 7F59   :    F;
 7F5A   :   3C;
 7F5B   :    0;
 7F5C   :    0;
 7F5D   :    0;
 7F5E   :    0;
 7F5F   :    0;
 7F60   :   FF;
 7F61   :   9F;
 7F62   :   3E;
 7F63   :   3F;
 7F64   :   7F;
 7F65   :   7F;
 7F66   :   7F;
 7F67   :   3F;
 7F68   :   8F;
 7F69   :    F;
 7F6A   :   19;
 7F6B   :   1E;
 7F6C   :   3F;
 7F6D   :   3F;
 7F6E   :   3F;
 7F6F   :   1F;
 7F70   :   FF;
 7F71   :   FF;
 7F72   :   1F;
 7F73   :   E1;
 7F74   :   FF;
 7F75   :   FF;
 7F76   :   FF;
 7F77   :   FE;
 7F78   :   FF;
 7F79   :   FF;
 7F7A   :   FF;
 7F7B   :   1E;
 7F7C   :   E1;
 7F7D   :   FF;
 7F7E   :   FF;
 7F7F   :   FF;
 7F80   :   ED;
 7F81   :   BE;
 7F82   :   7D;
 7F83   :   DB;
 7F84   :   3D;
 7F85   :   FB;
 7F86   :   B6;
 7F87   :   FA;
 7F88   :   D0;
 7F89   :   C0;
 7F8A   :   80;
 7F8B   :   20;
 7F8C   :   C0;
 7F8D   :   80;
 7F8E   :   40;
 7F8F   :    0;
 7F90   :   7C;
 7F91   :   7F;
 7F92   :   7F;
 7F93   :   7F;
 7F94   :   7F;
 7F95   :   7F;
 7F96   :    F;
 7F97   :    0;
 7F98   :   33;
 7F99   :   3C;
 7F9A   :   3F;
 7F9B   :   3F;
 7F9C   :    F;
 7F9D   :    1;
 7F9E   :    0;
 7F9F   :    0;
 7FA0   :    1;
 7FA1   :   FF;
 7FA2   :   FE;
 7FA3   :   FE;
 7FA4   :   FD;
 7FA5   :    1;
 7FA6   :   FF;
 7FA7   :   FF;
 7FA8   :   FE;
 7FA9   :    0;
 7FAA   :   FF;
 7FAB   :   FF;
 7FAC   :   FE;
 7FAD   :   FE;
 7FAE   :    0;
 7FAF   :    0;
 7FB0   :   B6;
 7FB1   :   6A;
 7FB2   :   F6;
 7FB3   :   6A;
 7FB4   :   F6;
 7FB5   :   7C;
 7FB6   :   F0;
 7FB7   :    0;
 7FB8   :   40;
 7FB9   :   80;
 7FBA   :    0;
 7FBB   :   80;
 7FBC   :    0;
 7FBD   :   80;
 7FBE   :    0;
 7FBF   :    0;
 7FC0   :   F0;
 7FC1   :   40;
 7FC2   :   51;
 7FC3   :   5B;
 7FC4   :   55;
 7FC5   :   51;
 7FC6   :   11;
 7FC7   :    0;
 7FC8   :    0;
 7FC9   :    0;
 7FCA   :    0;
 7FCB   :    0;
 7FCC   :    0;
 7FCD   :    0;
 7FCE   :    0;
 7FCF   :    0;
 7FD0   :    4;
 7FD1   :    F;
 7FD2   :   17;
 7FD3   :   2B;
 7FD4   :   58;
 7FD5   :   3C;
 7FD6   :   1F;
 7FD7   :    F;
 7FD8   :    0;
 7FD9   :    1;
 7FDA   :    A;
 7FDB   :   1E;
 7FDC   :   3F;
 7FDD   :   1B;
 7FDE   :    F;
 7FDF   :    0;
 7FE0   :   C0;
 7FE1   :   F0;
 7FE2   :   E8;
 7FE3   :   DC;
 7FE4   :   3E;
 7FE5   :   5C;
 7FE6   :   F8;
 7FE7   :   F0;
 7FE8   :    0;
 7FE9   :    0;
 7FEA   :   10;
 7FEB   :   20;
 7FEC   :   C0;
 7FED   :   80;
 7FEE   :   C0;
 7FEF   :    0;
 7FF0   :    0;
 7FF1   :    0;
 7FF2   :    0;
 7FF3   :    0;
 7FF4   :    0;
 7FF5   :    0;
 7FF6   :    0;
 7FF7   :    0;
 7FF8   :    0;
 7FF9   :    0;
 7FFA   :    0;
 7FFB   :    0;
 7FFC   :    0;
 7FFD   :    0;
 7FFE   :    0;
 7FFF   :    0;
END; 