-- Copyright (C) 1991-2013 Altera Corporation
-- Your use of Altera Corporation's design tools, logic functions 
-- and other software and tools, and its AMPP partner logic 
-- functions, and any output files from any of the foregoing 
-- (including device programming or simulation files), and any 
-- associated documentation or information are expressly subject 
-- to the terms and conditions of the Altera Program License 
-- Subscription Agreement, Altera MegaCore Function License 
-- Agreement, or other applicable license agreement, including, 
-- without limitation, that your use is for the sole purpose of 
-- programming logic devices manufactured by Altera and sold by 
-- Altera or its authorized distributors.  Please refer to the 
-- applicable agreement for further details.

-- Quartus II generated Memory Initialization File (.mif)

WIDTH=8;
DEPTH=32768;

ADDRESS_RADIX=HEX;
DATA_RADIX=HEX;

CONTENT BEGIN    
    0   :   C7;
    1   :   B3;
    2   :   39;
    3   :   39;
    4   :   39;
    5   :   9B;
    6   :   C7;
    7   :   FF;
    8   :    0;
    9   :    0;
    A   :    0;
    B   :    0;
    C   :    0;
    D   :    0;
    E   :    0;
    F   :    0;
   10   :   E7;
   11   :   C7;
   12   :   E7;
   13   :   E7;
   14   :   E7;
   15   :   E7;
   16   :   81;
   17   :   FF;
   18   :    0;
   19   :    0;
   1A   :    0;
   1B   :    0;
   1C   :    0;
   1D   :    0;
   1E   :    0;
   1F   :    0;
   20   :   83;
   21   :   39;
   22   :   F1;
   23   :   C3;
   24   :   87;
   25   :   1F;
   26   :    1;
   27   :   FF;
   28   :    0;
   29   :    0;
   2A   :    0;
   2B   :    0;
   2C   :    0;
   2D   :    0;
   2E   :    0;
   2F   :    0;
   30   :   81;
   31   :   F3;
   32   :   E7;
   33   :   C3;
   34   :   F9;
   35   :   39;
   36   :   83;
   37   :   FF;
   38   :    0;
   39   :    0;
   3A   :    0;
   3B   :    0;
   3C   :    0;
   3D   :    0;
   3E   :    0;
   3F   :    0;
   40   :   E3;
   41   :   C3;
   42   :   93;
   43   :   33;
   44   :    1;
   45   :   F3;
   46   :   F3;
   47   :   FF;
   48   :    0;
   49   :    0;
   4A   :    0;
   4B   :    0;
   4C   :    0;
   4D   :    0;
   4E   :    0;
   4F   :    0;
   50   :    3;
   51   :   3F;
   52   :    3;
   53   :   F9;
   54   :   F9;
   55   :   39;
   56   :   83;
   57   :   FF;
   58   :    0;
   59   :    0;
   5A   :    0;
   5B   :    0;
   5C   :    0;
   5D   :    0;
   5E   :    0;
   5F   :    0;
   60   :   C3;
   61   :   9F;
   62   :   3F;
   63   :    3;
   64   :   39;
   65   :   39;
   66   :   83;
   67   :   FF;
   68   :    0;
   69   :    0;
   6A   :    0;
   6B   :    0;
   6C   :    0;
   6D   :    0;
   6E   :    0;
   6F   :    0;
   70   :    1;
   71   :   39;
   72   :   F3;
   73   :   E7;
   74   :   CF;
   75   :   CF;
   76   :   CF;
   77   :   FF;
   78   :    0;
   79   :    0;
   7A   :    0;
   7B   :    0;
   7C   :    0;
   7D   :    0;
   7E   :    0;
   7F   :    0;
   80   :   83;
   81   :   39;
   82   :   39;
   83   :   83;
   84   :   39;
   85   :   39;
   86   :   83;
   87   :   FF;
   88   :    0;
   89   :    0;
   8A   :    0;
   8B   :    0;
   8C   :    0;
   8D   :    0;
   8E   :    0;
   8F   :    0;
   90   :   83;
   91   :   39;
   92   :   39;
   93   :   81;
   94   :   F9;
   95   :   F3;
   96   :   87;
   97   :   FF;
   98   :    0;
   99   :    0;
   9A   :    0;
   9B   :    0;
   9C   :    0;
   9D   :    0;
   9E   :    0;
   9F   :    0;
   A0   :   C7;
   A1   :   93;
   A2   :   39;
   A3   :   39;
   A4   :    1;
   A5   :   39;
   A6   :   39;
   A7   :   FF;
   A8   :    0;
   A9   :    0;
   AA   :    0;
   AB   :    0;
   AC   :    0;
   AD   :    0;
   AE   :    0;
   AF   :    0;
   B0   :    3;
   B1   :   39;
   B2   :   39;
   B3   :    3;
   B4   :   39;
   B5   :   39;
   B6   :    3;
   B7   :   FF;
   B8   :    0;
   B9   :    0;
   BA   :    0;
   BB   :    0;
   BC   :    0;
   BD   :    0;
   BE   :    0;
   BF   :    0;
   C0   :   C3;
   C1   :   99;
   C2   :   3F;
   C3   :   3F;
   C4   :   3F;
   C5   :   99;
   C6   :   C3;
   C7   :   FF;
   C8   :    0;
   C9   :    0;
   CA   :    0;
   CB   :    0;
   CC   :    0;
   CD   :    0;
   CE   :    0;
   CF   :    0;
   D0   :    7;
   D1   :   33;
   D2   :   39;
   D3   :   39;
   D4   :   39;
   D5   :   33;
   D6   :    7;
   D7   :   FF;
   D8   :    0;
   D9   :    0;
   DA   :    0;
   DB   :    0;
   DC   :    0;
   DD   :    0;
   DE   :    0;
   DF   :    0;
   E0   :    1;
   E1   :   3F;
   E2   :   3F;
   E3   :    3;
   E4   :   3F;
   E5   :   3F;
   E6   :    1;
   E7   :   FF;
   E8   :    0;
   E9   :    0;
   EA   :    0;
   EB   :    0;
   EC   :    0;
   ED   :    0;
   EE   :    0;
   EF   :    0;
   F0   :    1;
   F1   :   3F;
   F2   :   3F;
   F3   :    3;
   F4   :   3F;
   F5   :   3F;
   F6   :   3F;
   F7   :   FF;
   F8   :    0;
   F9   :    0;
   FA   :    0;
   FB   :    0;
   FC   :    0;
   FD   :    0;
   FE   :    0;
   FF   :    0;
  100   :   C1;
  101   :   9F;
  102   :   3F;
  103   :   31;
  104   :   39;
  105   :   99;
  106   :   C1;
  107   :   FF;
  108   :    0;
  109   :    0;
  10A   :    0;
  10B   :    0;
  10C   :    0;
  10D   :    0;
  10E   :    0;
  10F   :    0;
  110   :   39;
  111   :   39;
  112   :   39;
  113   :    1;
  114   :   39;
  115   :   39;
  116   :   39;
  117   :   FF;
  118   :    0;
  119   :    0;
  11A   :    0;
  11B   :    0;
  11C   :    0;
  11D   :    0;
  11E   :    0;
  11F   :    0;
  120   :   81;
  121   :   E7;
  122   :   E7;
  123   :   E7;
  124   :   E7;
  125   :   E7;
  126   :   81;
  127   :   FF;
  128   :    0;
  129   :    0;
  12A   :    0;
  12B   :    0;
  12C   :    0;
  12D   :    0;
  12E   :    0;
  12F   :    0;
  130   :   E1;
  131   :   F9;
  132   :   F9;
  133   :   F9;
  134   :   39;
  135   :   39;
  136   :   83;
  137   :   FF;
  138   :    0;
  139   :    0;
  13A   :    0;
  13B   :    0;
  13C   :    0;
  13D   :    0;
  13E   :    0;
  13F   :    0;
  140   :   39;
  141   :   33;
  142   :   27;
  143   :    F;
  144   :    7;
  145   :   23;
  146   :   31;
  147   :   FF;
  148   :    0;
  149   :    0;
  14A   :    0;
  14B   :    0;
  14C   :    0;
  14D   :    0;
  14E   :    0;
  14F   :    0;
  150   :   9F;
  151   :   9F;
  152   :   9F;
  153   :   9F;
  154   :   9F;
  155   :   9F;
  156   :   81;
  157   :   FF;
  158   :    0;
  159   :    0;
  15A   :    0;
  15B   :    0;
  15C   :    0;
  15D   :    0;
  15E   :    0;
  15F   :    0;
  160   :   39;
  161   :   11;
  162   :    1;
  163   :    1;
  164   :   29;
  165   :   39;
  166   :   39;
  167   :   FF;
  168   :    0;
  169   :    0;
  16A   :    0;
  16B   :    0;
  16C   :    0;
  16D   :    0;
  16E   :    0;
  16F   :    0;
  170   :   39;
  171   :   19;
  172   :    9;
  173   :    1;
  174   :   21;
  175   :   31;
  176   :   39;
  177   :   FF;
  178   :    0;
  179   :    0;
  17A   :    0;
  17B   :    0;
  17C   :    0;
  17D   :    0;
  17E   :    0;
  17F   :    0;
  180   :   83;
  181   :   39;
  182   :   39;
  183   :   39;
  184   :   39;
  185   :   39;
  186   :   83;
  187   :   FF;
  188   :    0;
  189   :    0;
  18A   :    0;
  18B   :    0;
  18C   :    0;
  18D   :    0;
  18E   :    0;
  18F   :    0;
  190   :    3;
  191   :   39;
  192   :   39;
  193   :   39;
  194   :    3;
  195   :   3F;
  196   :   3F;
  197   :   FF;
  198   :    0;
  199   :    0;
  19A   :    0;
  19B   :    0;
  19C   :    0;
  19D   :    0;
  19E   :    0;
  19F   :    0;
  1A0   :   83;
  1A1   :   39;
  1A2   :   39;
  1A3   :   39;
  1A4   :   21;
  1A5   :   33;
  1A6   :   85;
  1A7   :   FF;
  1A8   :    0;
  1A9   :    0;
  1AA   :    0;
  1AB   :    0;
  1AC   :    0;
  1AD   :    0;
  1AE   :    0;
  1AF   :    0;
  1B0   :    3;
  1B1   :   39;
  1B2   :   39;
  1B3   :   31;
  1B4   :    7;
  1B5   :   23;
  1B6   :   31;
  1B7   :   FF;
  1B8   :    0;
  1B9   :    0;
  1BA   :    0;
  1BB   :    0;
  1BC   :    0;
  1BD   :    0;
  1BE   :    0;
  1BF   :    0;
  1C0   :   87;
  1C1   :   33;
  1C2   :   3F;
  1C3   :   83;
  1C4   :   F9;
  1C5   :   39;
  1C6   :   83;
  1C7   :   FF;
  1C8   :    0;
  1C9   :    0;
  1CA   :    0;
  1CB   :    0;
  1CC   :    0;
  1CD   :    0;
  1CE   :    0;
  1CF   :    0;
  1D0   :   81;
  1D1   :   E7;
  1D2   :   E7;
  1D3   :   E7;
  1D4   :   E7;
  1D5   :   E7;
  1D6   :   E7;
  1D7   :   FF;
  1D8   :    0;
  1D9   :    0;
  1DA   :    0;
  1DB   :    0;
  1DC   :    0;
  1DD   :    0;
  1DE   :    0;
  1DF   :    0;
  1E0   :   39;
  1E1   :   39;
  1E2   :   39;
  1E3   :   39;
  1E4   :   39;
  1E5   :   39;
  1E6   :   83;
  1E7   :   FF;
  1E8   :    0;
  1E9   :    0;
  1EA   :    0;
  1EB   :    0;
  1EC   :    0;
  1ED   :    0;
  1EE   :    0;
  1EF   :    0;
  1F0   :   39;
  1F1   :   39;
  1F2   :   39;
  1F3   :   11;
  1F4   :   83;
  1F5   :   C7;
  1F6   :   EF;
  1F7   :   FF;
  1F8   :    0;
  1F9   :    0;
  1FA   :    0;
  1FB   :    0;
  1FC   :    0;
  1FD   :    0;
  1FE   :    0;
  1FF   :    0;
  200   :   39;
  201   :   39;
  202   :   29;
  203   :    1;
  204   :    1;
  205   :   11;
  206   :   39;
  207   :   FF;
  208   :    0;
  209   :    0;
  20A   :    0;
  20B   :    0;
  20C   :    0;
  20D   :    0;
  20E   :    0;
  20F   :    0;
  210   :   39;
  211   :   11;
  212   :   83;
  213   :   C7;
  214   :   83;
  215   :   11;
  216   :   39;
  217   :   FF;
  218   :    0;
  219   :    0;
  21A   :    0;
  21B   :    0;
  21C   :    0;
  21D   :    0;
  21E   :    0;
  21F   :    0;
  220   :   99;
  221   :   99;
  222   :   99;
  223   :   C3;
  224   :   E7;
  225   :   E7;
  226   :   E7;
  227   :   FF;
  228   :    0;
  229   :    0;
  22A   :    0;
  22B   :    0;
  22C   :    0;
  22D   :    0;
  22E   :    0;
  22F   :    0;
  230   :    1;
  231   :   F1;
  232   :   E3;
  233   :   C7;
  234   :   8F;
  235   :   1F;
  236   :    1;
  237   :   FF;
  238   :    0;
  239   :    0;
  23A   :    0;
  23B   :    0;
  23C   :    0;
  23D   :    0;
  23E   :    0;
  23F   :    0;
  240   :   FF;
  241   :   FF;
  242   :   FF;
  243   :   C3;
  244   :   C3;
  245   :   FF;
  246   :   FF;
  247   :   FF;
  248   :    0;
  249   :    0;
  24A   :    0;
  24B   :    0;
  24C   :    0;
  24D   :    0;
  24E   :    0;
  24F   :    0;
  250   :   FF;
  251   :   FF;
  252   :   FF;
  253   :   CF;
  254   :   CF;
  255   :   EF;
  256   :   DF;
  257   :   FF;
  258   :    0;
  259   :    0;
  25A   :    0;
  25B   :    0;
  25C   :    0;
  25D   :    0;
  25E   :    0;
  25F   :    0;
  260   :    0;
  261   :    0;
  262   :    0;
  263   :    0;
  264   :    0;
  265   :    0;
  266   :    0;
  267   :    0;
  268   :    0;
  269   :    0;
  26A   :    0;
  26B   :    0;
  26C   :    0;
  26D   :    0;
  26E   :    0;
  26F   :    0;
  270   :    0;
  271   :    0;
  272   :    F;
  273   :    0;
  274   :    0;
  275   :    0;
  276   :    0;
  277   :   8F;
  278   :    0;
  279   :    0;
  27A   :    0;
  27B   :   2F;
  27C   :   2F;
  27D   :   A0;
  27E   :   20;
  27F   :   20;
  280   :   FF;
  281   :   FF;
  282   :   FF;
  283   :    1;
  284   :    1;
  285   :    0;
  286   :    0;
  287   :   F1;
  288   :   FF;
  289   :   FF;
  28A   :    F;
  28B   :   F5;
  28C   :   F5;
  28D   :    5;
  28E   :    4;
  28F   :    4;
  290   :    0;
  291   :    0;
  292   :    4;
  293   :    0;
  294   :    0;
  295   :    0;
  296   :    0;
  297   :    0;
  298   :    0;
  299   :   6C;
  29A   :   FA;
  29B   :   FE;
  29C   :   7C;
  29D   :   38;
  29E   :   10;
  29F   :    0;
  2A0   :   FF;
  2A1   :   FF;
  2A2   :   FF;
  2A3   :   FF;
  2A4   :   FF;
  2A5   :   E7;
  2A6   :   E7;
  2A7   :   FF;
  2A8   :    0;
  2A9   :    0;
  2AA   :    0;
  2AB   :    0;
  2AC   :    0;
  2AD   :    0;
  2AE   :    0;
  2AF   :    0;
  2B0   :   3C;
  2B1   :   42;
  2B2   :   99;
  2B3   :   A1;
  2B4   :   A1;
  2B5   :   99;
  2B6   :   42;
  2B7   :   3C;
  2B8   :    0;
  2B9   :    0;
  2BA   :    0;
  2BB   :    0;
  2BC   :    0;
  2BD   :    0;
  2BE   :    0;
  2BF   :    0;
  2C0   :    0;
  2C1   :    0;
  2C2   :    0;
  2C3   :    0;
  2C4   :    0;
  2C5   :    0;
  2C6   :    0;
  2C7   :    7;
  2C8   :    0;
  2C9   :    0;
  2CA   :    0;
  2CB   :    0;
  2CC   :    0;
  2CD   :   1F;
  2CE   :   10;
  2CF   :   10;
  2D0   :   FF;
  2D1   :   FF;
  2D2   :   FF;
  2D3   :   D0;
  2D4   :   80;
  2D5   :    0;
  2D6   :    0;
  2D7   :   8F;
  2D8   :   FF;
  2D9   :   FF;
  2DA   :   F0;
  2DB   :   FF;
  2DC   :   AF;
  2DD   :   A0;
  2DE   :   20;
  2DF   :   20;
  2E0   :    0;
  2E1   :    0;
  2E2   :   F0;
  2E3   :    0;
  2E4   :    0;
  2E5   :    0;
  2E6   :    0;
  2E7   :   F1;
  2E8   :    0;
  2E9   :    0;
  2EA   :    0;
  2EB   :   F4;
  2EC   :   F4;
  2ED   :    5;
  2EE   :    4;
  2EF   :    4;
  2F0   :   FF;
  2F1   :   FF;
  2F2   :   FF;
  2F3   :   FF;
  2F4   :   FF;
  2F5   :    7;
  2F6   :    7;
  2F7   :   E7;
  2F8   :   FF;
  2F9   :   FF;
  2FA   :   FF;
  2FB   :   FF;
  2FC   :   FF;
  2FD   :   FF;
  2FE   :    F;
  2FF   :    F;
  300   :   FC;
  301   :   F0;
  302   :   E0;
  303   :   C3;
  304   :   8F;
  305   :   8F;
  306   :   1E;
  307   :   1C;
  308   :   FC;
  309   :   F3;
  30A   :   EC;
  30B   :   D1;
  30C   :   A3;
  30D   :   A7;
  30E   :   5E;
  30F   :   4C;
  310   :    0;
  311   :    0;
  312   :    0;
  313   :   FF;
  314   :   FF;
  315   :   FF;
  316   :    0;
  317   :    0;
  318   :    0;
  319   :   FF;
  31A   :    0;
  31B   :    0;
  31C   :   FF;
  31D   :   FF;
  31E   :    0;
  31F   :   FF;
  320   :    0;
  321   :    0;
  322   :    0;
  323   :   C0;
  324   :   F0;
  325   :   F0;
  326   :   78;
  327   :   38;
  328   :    0;
  329   :   C0;
  32A   :   30;
  32B   :   88;
  32C   :   C4;
  32D   :   E4;
  32E   :   7A;
  32F   :   32;
  330   :   1C;
  331   :   1C;
  332   :   1C;
  333   :   1C;
  334   :   1C;
  335   :   1C;
  336   :   1C;
  337   :   1C;
  338   :   4D;
  339   :   4D;
  33A   :   4D;
  33B   :   4D;
  33C   :   4D;
  33D   :   4D;
  33E   :   4D;
  33F   :   4D;
  340   :   38;
  341   :   38;
  342   :   38;
  343   :   38;
  344   :   38;
  345   :   38;
  346   :   38;
  347   :   38;
  348   :   B2;
  349   :   B2;
  34A   :   B2;
  34B   :   B2;
  34C   :   B2;
  34D   :   B2;
  34E   :   B2;
  34F   :   B2;
  350   :   1C;
  351   :   1E;
  352   :    F;
  353   :    F;
  354   :    3;
  355   :    0;
  356   :    0;
  357   :    0;
  358   :   5C;
  359   :   4E;
  35A   :   2F;
  35B   :   23;
  35C   :   11;
  35D   :    C;
  35E   :    3;
  35F   :    0;
  360   :    0;
  361   :    0;
  362   :   FF;
  363   :   FF;
  364   :   FF;
  365   :    0;
  366   :    0;
  367   :    0;
  368   :   FF;
  369   :    0;
  36A   :   FF;
  36B   :   FF;
  36C   :    0;
  36D   :    0;
  36E   :   FF;
  36F   :    0;
  370   :   38;
  371   :   78;
  372   :   F1;
  373   :   F1;
  374   :   C3;
  375   :    7;
  376   :    F;
  377   :   3F;
  378   :   3A;
  379   :   72;
  37A   :   F5;
  37B   :   C5;
  37C   :   8B;
  37D   :   37;
  37E   :   CF;
  37F   :   3F;
  380   :   E3;
  381   :   C1;
  382   :   80;
  383   :    C;
  384   :   1C;
  385   :   1C;
  386   :   1C;
  387   :   1C;
  388   :   E3;
  389   :   DD;
  38A   :   A2;
  38B   :   41;
  38C   :   4D;
  38D   :   4D;
  38E   :   4D;
  38F   :   4D;
  390   :    0;
  391   :    0;
  392   :    0;
  393   :   30;
  394   :   38;
  395   :   38;
  396   :   38;
  397   :   38;
  398   :    0;
  399   :   38;
  39A   :   44;
  39B   :   82;
  39C   :   B2;
  39D   :   B2;
  39E   :   B2;
  39F   :   B2;
  3A0   :   1C;
  3A1   :    E;
  3A2   :   8F;
  3A3   :   87;
  3A4   :   C1;
  3A5   :   E0;
  3A6   :   F0;
  3A7   :   FC;
  3A8   :   5C;
  3A9   :   4E;
  3AA   :   A7;
  3AB   :   A1;
  3AC   :   D0;
  3AD   :   EC;
  3AE   :   F3;
  3AF   :   FC;
  3B0   :    0;
  3B1   :    0;
  3B2   :   80;
  3B3   :   C0;
  3B4   :   F0;
  3B5   :   78;
  3B6   :   3C;
  3B7   :   1C;
  3B8   :   80;
  3B9   :   60;
  3BA   :   98;
  3BB   :   C4;
  3BC   :   72;
  3BD   :   7A;
  3BE   :   1D;
  3BF   :   8D;
  3C0   :    0;
  3C1   :    0;
  3C2   :    1;
  3C3   :    3;
  3C4   :    F;
  3C5   :   1E;
  3C6   :   3C;
  3C7   :   38;
  3C8   :    1;
  3C9   :    6;
  3CA   :   19;
  3CB   :   23;
  3CC   :   4E;
  3CD   :   5E;
  3CE   :   B8;
  3CF   :   B1;
  3D0   :   38;
  3D1   :   70;
  3D2   :   F0;
  3D3   :   E0;
  3D4   :   80;
  3D5   :    0;
  3D6   :    0;
  3D7   :    0;
  3D8   :   3A;
  3D9   :   72;
  3DA   :   E4;
  3DB   :   84;
  3DC   :    8;
  3DD   :   30;
  3DE   :   C0;
  3DF   :    0;
  3E0   :   1C;
  3E1   :   3C;
  3E2   :   78;
  3E3   :   F8;
  3E4   :   F0;
  3E5   :   C1;
  3E6   :    0;
  3E7   :    0;
  3E8   :   DD;
  3E9   :   9D;
  3EA   :   3B;
  3EB   :   FA;
  3EC   :   F6;
  3ED   :   CD;
  3EE   :   38;
  3EF   :   E0;
  3F0   :   38;
  3F1   :   3C;
  3F2   :   1E;
  3F3   :   1F;
  3F4   :    F;
  3F5   :   83;
  3F6   :    0;
  3F7   :    0;
  3F8   :   BB;
  3F9   :   B9;
  3FA   :   DC;
  3FB   :   5F;
  3FC   :   6F;
  3FD   :   B3;
  3FE   :   1C;
  3FF   :    7;
  400   :   7C;
  401   :   FE;
  402   :   FE;
  403   :   FE;
  404   :   FE;
  405   :   FE;
  406   :   FE;
  407   :    0;
  408   :    0;
  409   :   20;
  40A   :   40;
  40B   :   40;
  40C   :   40;
  40D   :   40;
  40E   :    0;
  40F   :    0;
  410   :    0;
  411   :   20;
  412   :   40;
  413   :   40;
  414   :   40;
  415   :   40;
  416   :    0;
  417   :    0;
  418   :   7C;
  419   :   DE;
  41A   :   BE;
  41B   :   BE;
  41C   :   BE;
  41D   :   BE;
  41E   :   FE;
  41F   :    0;
  420   :   7C;
  421   :   FE;
  422   :   FE;
  423   :   FE;
  424   :   FE;
  425   :   FE;
  426   :   FE;
  427   :    0;
  428   :   7C;
  429   :   DE;
  42A   :   BE;
  42B   :   BE;
  42C   :   BE;
  42D   :   BE;
  42E   :   FE;
  42F   :    0;
  430   :    0;
  431   :    0;
  432   :    0;
  433   :   FF;
  434   :    0;
  435   :   FF;
  436   :    0;
  437   :   FF;
  438   :    0;
  439   :    0;
  43A   :    0;
  43B   :   FF;
  43C   :   FF;
  43D   :   FF;
  43E   :    0;
  43F   :   FF;
  440   :   FF;
  441   :   FF;
  442   :    0;
  443   :   FF;
  444   :    0;
  445   :   FF;
  446   :    0;
  447   :   FF;
  448   :   FF;
  449   :   FF;
  44A   :    0;
  44B   :   FF;
  44C   :   FF;
  44D   :   FF;
  44E   :    0;
  44F   :   FF;
  450   :   FF;
  451   :    0;
  452   :    0;
  453   :    0;
  454   :    0;
  455   :   FF;
  456   :   FF;
  457   :   FF;
  458   :    0;
  459   :    0;
  45A   :   FF;
  45B   :   FF;
  45C   :    0;
  45D   :    0;
  45E   :    0;
  45F   :    0;
  460   :    0;
  461   :    0;
  462   :   7F;
  463   :   FF;
  464   :    0;
  465   :   FF;
  466   :    0;
  467   :    0;
  468   :    0;
  469   :   7F;
  46A   :   7F;
  46B   :   FF;
  46C   :    0;
  46D   :   FF;
  46E   :    0;
  46F   :    0;
  470   :    0;
  471   :    0;
  472   :   FE;
  473   :   FF;
  474   :    0;
  475   :   FF;
  476   :    0;
  477   :    0;
  478   :    0;
  479   :   FE;
  47A   :   FE;
  47B   :   FF;
  47C   :    0;
  47D   :   FF;
  47E   :    0;
  47F   :    0;
  480   :   FF;
  481   :    0;
  482   :    0;
  483   :    0;
  484   :    0;
  485   :    0;
  486   :    0;
  487   :    0;
  488   :    0;
  489   :    0;
  48A   :   FF;
  48B   :   FF;
  48C   :    0;
  48D   :    0;
  48E   :    0;
  48F   :    0;
  490   :    0;
  491   :    0;
  492   :    0;
  493   :    0;
  494   :    0;
  495   :    0;
  496   :    0;
  497   :   FF;
  498   :    0;
  499   :    0;
  49A   :    0;
  49B   :    0;
  49C   :    0;
  49D   :   FF;
  49E   :    0;
  49F   :    0;
  4A0   :    0;
  4A1   :    0;
  4A2   :    0;
  4A3   :    0;
  4A4   :    0;
  4A5   :    0;
  4A6   :    0;
  4A7   :    0;
  4A8   :    0;
  4A9   :   FF;
  4AA   :   FF;
  4AB   :    0;
  4AC   :    0;
  4AD   :    0;
  4AE   :    0;
  4AF   :    0;
  4B0   :   FF;
  4B1   :   F8;
  4B2   :   E0;
  4B3   :   C0;
  4B4   :   C0;
  4B5   :   80;
  4B6   :   80;
  4B7   :   80;
  4B8   :   FF;
  4B9   :   FF;
  4BA   :   F8;
  4BB   :   E0;
  4BC   :   E0;
  4BD   :   C0;
  4BE   :   C0;
  4BF   :   C0;
  4C0   :    0;
  4C1   :    0;
  4C2   :    0;
  4C3   :    0;
  4C4   :    0;
  4C5   :    0;
  4C6   :    0;
  4C7   :    0;
  4C8   :   FF;
  4C9   :    0;
  4CA   :    0;
  4CB   :    0;
  4CC   :    0;
  4CD   :    0;
  4CE   :    0;
  4CF   :    0;
  4D0   :    0;
  4D1   :    0;
  4D2   :    0;
  4D3   :    0;
  4D4   :    0;
  4D5   :    0;
  4D6   :    0;
  4D7   :    0;
  4D8   :    0;
  4D9   :    0;
  4DA   :    0;
  4DB   :    0;
  4DC   :    0;
  4DD   :    0;
  4DE   :    0;
  4DF   :   FF;
  4E0   :   FF;
  4E1   :   1F;
  4E2   :    7;
  4E3   :    3;
  4E4   :    3;
  4E5   :    1;
  4E6   :    1;
  4E7   :    1;
  4E8   :   FF;
  4E9   :   FF;
  4EA   :   1F;
  4EB   :    7;
  4EC   :    7;
  4ED   :    3;
  4EE   :    3;
  4EF   :    3;
  4F0   :    0;
  4F1   :    0;
  4F2   :    0;
  4F3   :    0;
  4F4   :    0;
  4F5   :    0;
  4F6   :    0;
  4F7   :    0;
  4F8   :   FF;
  4F9   :   80;
  4FA   :   80;
  4FB   :   80;
  4FC   :   80;
  4FD   :   80;
  4FE   :   80;
  4FF   :   80;
  500   :   FE;
  501   :   FE;
  502   :   FE;
  503   :   FE;
  504   :   FE;
  505   :   FE;
  506   :   7C;
  507   :    0;
  508   :   40;
  509   :   40;
  50A   :   40;
  50B   :   40;
  50C   :   40;
  50D   :    0;
  50E   :    0;
  50F   :    0;
  510   :   40;
  511   :   40;
  512   :   40;
  513   :   40;
  514   :   40;
  515   :    0;
  516   :    0;
  517   :    0;
  518   :   BE;
  519   :   BE;
  51A   :   BE;
  51B   :   BE;
  51C   :   BE;
  51D   :   FE;
  51E   :   7C;
  51F   :    0;
  520   :   FE;
  521   :   FE;
  522   :   FE;
  523   :   FE;
  524   :   FE;
  525   :   FE;
  526   :   7C;
  527   :    0;
  528   :   BE;
  529   :   BE;
  52A   :   BE;
  52B   :   BE;
  52C   :   BE;
  52D   :   FE;
  52E   :   7C;
  52F   :    0;
  530   :   E7;
  531   :   E7;
  532   :   E7;
  533   :   E7;
  534   :   E7;
  535   :   E7;
  536   :   E7;
  537   :   E7;
  538   :   F0;
  539   :   F0;
  53A   :   F0;
  53B   :   F0;
  53C   :   F0;
  53D   :   F0;
  53E   :   F0;
  53F   :   F0;
  540   :   8F;
  541   :   80;
  542   :   80;
  543   :   C0;
  544   :   F0;
  545   :   FF;
  546   :   FF;
  547   :   FF;
  548   :   20;
  549   :   20;
  54A   :   37;
  54B   :    7;
  54C   :    0;
  54D   :    0;
  54E   :    0;
  54F   :    0;
  550   :   F1;
  551   :    1;
  552   :    1;
  553   :    3;
  554   :    F;
  555   :   FF;
  556   :   FF;
  557   :   FF;
  558   :    4;
  559   :    4;
  55A   :   EC;
  55B   :   E0;
  55C   :    0;
  55D   :    0;
  55E   :    0;
  55F   :    0;
  560   :   E0;
  561   :   E0;
  562   :   E0;
  563   :   E0;
  564   :   E0;
  565   :   E0;
  566   :   E0;
  567   :   E0;
  568   :    8;
  569   :    8;
  56A   :    8;
  56B   :    8;
  56C   :    8;
  56D   :    8;
  56E   :    8;
  56F   :    8;
  570   :    7;
  571   :    7;
  572   :    7;
  573   :    7;
  574   :    7;
  575   :    7;
  576   :    7;
  577   :    7;
  578   :   10;
  579   :   10;
  57A   :   10;
  57B   :   10;
  57C   :   10;
  57D   :   10;
  57E   :   10;
  57F   :   10;
  580   :   E7;
  581   :   E7;
  582   :   E7;
  583   :   E7;
  584   :   E7;
  585   :   E7;
  586   :   E7;
  587   :   E7;
  588   :    F;
  589   :    F;
  58A   :    F;
  58B   :    F;
  58C   :    F;
  58D   :    F;
  58E   :    F;
  58F   :    F;
  590   :   E0;
  591   :   E0;
  592   :   E0;
  593   :   FF;
  594   :   FF;
  595   :   FF;
  596   :   FF;
  597   :   FF;
  598   :   F0;
  599   :   FF;
  59A   :   FF;
  59B   :   FF;
  59C   :   FF;
  59D   :   FF;
  59E   :   FF;
  59F   :   FF;
  5A0   :    0;
  5A1   :    0;
  5A2   :    0;
  5A3   :    0;
  5A4   :    0;
  5A5   :    0;
  5A6   :    0;
  5A7   :    0;
  5A8   :    8;
  5A9   :   F8;
  5AA   :   F8;
  5AB   :    0;
  5AC   :    0;
  5AD   :    0;
  5AE   :    0;
  5AF   :    0;
  5B0   :    0;
  5B1   :    0;
  5B2   :    0;
  5B3   :    0;
  5B4   :    0;
  5B5   :    0;
  5B6   :    0;
  5B7   :    0;
  5B8   :   80;
  5B9   :   80;
  5BA   :   80;
  5BB   :   80;
  5BC   :   80;
  5BD   :   80;
  5BE   :   80;
  5BF   :   80;
  5C0   :    0;
  5C1   :    0;
  5C2   :    1;
  5C3   :    1;
  5C4   :    1;
  5C5   :    4;
  5C6   :   21;
  5C7   :   35;
  5C8   :   FF;
  5C9   :   80;
  5CA   :   80;
  5CB   :   80;
  5CC   :   82;
  5CD   :   84;
  5CE   :   81;
  5CF   :   81;
  5D0   :    0;
  5D1   :    0;
  5D2   :   80;
  5D3   :   80;
  5D4   :   C0;
  5D5   :    0;
  5D6   :    4;
  5D7   :   2C;
  5D8   :   FF;
  5D9   :    1;
  5DA   :    1;
  5DB   :    1;
  5DC   :   41;
  5DD   :   21;
  5DE   :   81;
  5DF   :   81;
  5E0   :    0;
  5E1   :    0;
  5E2   :    0;
  5E3   :    0;
  5E4   :    0;
  5E5   :    0;
  5E6   :    0;
  5E7   :    0;
  5E8   :    1;
  5E9   :    1;
  5EA   :    1;
  5EB   :    1;
  5EC   :    1;
  5ED   :    1;
  5EE   :    1;
  5EF   :    1;
  5F0   :    0;
  5F1   :    0;
  5F2   :    0;
  5F3   :    0;
  5F4   :    0;
  5F5   :    0;
  5F6   :    0;
  5F7   :    0;
  5F8   :   80;
  5F9   :   80;
  5FA   :   80;
  5FB   :   80;
  5FC   :   80;
  5FD   :   80;
  5FE   :   80;
  5FF   :   FF;
  600   :   7E;
  601   :   FE;
  602   :   FE;
  603   :   FE;
  604   :   FE;
  605   :   FE;
  606   :   7E;
  607   :    0;
  608   :    0;
  609   :   3C;
  60A   :   40;
  60B   :    0;
  60C   :    0;
  60D   :    0;
  60E   :    0;
  60F   :    0;
  610   :    0;
  611   :   3C;
  612   :   40;
  613   :    0;
  614   :    0;
  615   :    0;
  616   :    0;
  617   :    0;
  618   :   7E;
  619   :   C2;
  61A   :   BE;
  61B   :   FE;
  61C   :   FE;
  61D   :   FE;
  61E   :   7E;
  61F   :    0;
  620   :   7E;
  621   :   FE;
  622   :   FE;
  623   :   FE;
  624   :   FE;
  625   :   FE;
  626   :   7E;
  627   :    0;
  628   :   7E;
  629   :   C2;
  62A   :   BE;
  62B   :   FE;
  62C   :   FE;
  62D   :   FE;
  62E   :   7E;
  62F   :    0;
  630   :   30;
  631   :   30;
  632   :   60;
  633   :   60;
  634   :   60;
  635   :   60;
  636   :   60;
  637   :   60;
  638   :    7;
  639   :    7;
  63A   :    F;
  63B   :    F;
  63C   :    F;
  63D   :    F;
  63E   :    F;
  63F   :    F;
  640   :    C;
  641   :    C;
  642   :    6;
  643   :    6;
  644   :    6;
  645   :    6;
  646   :    6;
  647   :    6;
  648   :   E0;
  649   :   E0;
  64A   :   F0;
  64B   :   F0;
  64C   :   F0;
  64D   :   F0;
  64E   :   F0;
  64F   :   F0;
  650   :    0;
  651   :   FF;
  652   :   FF;
  653   :    0;
  654   :    0;
  655   :    0;
  656   :    0;
  657   :    0;
  658   :    0;
  659   :    0;
  65A   :    0;
  65B   :    0;
  65C   :   FF;
  65D   :   FF;
  65E   :   FF;
  65F   :   FF;
  660   :   FF;
  661   :   FF;
  662   :   FF;
  663   :   FF;
  664   :   FF;
  665   :   E0;
  666   :   E0;
  667   :   E7;
  668   :   FF;
  669   :   FF;
  66A   :   FF;
  66B   :   FF;
  66C   :   FF;
  66D   :   FF;
  66E   :   F0;
  66F   :   F0;
  670   :    0;
  671   :    0;
  672   :    0;
  673   :    0;
  674   :    0;
  675   :    0;
  676   :    0;
  677   :   E0;
  678   :    0;
  679   :    0;
  67A   :    0;
  67B   :    0;
  67C   :    0;
  67D   :   F8;
  67E   :    8;
  67F   :    8;
  680   :    0;
  681   :    0;
  682   :    0;
  683   :    0;
  684   :    0;
  685   :    0;
  686   :    0;
  687   :    0;
  688   :    0;
  689   :    0;
  68A   :    0;
  68B   :    0;
  68C   :    0;
  68D   :    0;
  68E   :    0;
  68F   :    0;
  690   :   8C;
  691   :   80;
  692   :   80;
  693   :   C0;
  694   :   F0;
  695   :   FC;
  696   :   FC;
  697   :   FC;
  698   :   21;
  699   :   20;
  69A   :   37;
  69B   :    7;
  69C   :    0;
  69D   :    1;
  69E   :    1;
  69F   :    1;
  6A0   :   31;
  6A1   :    1;
  6A2   :    1;
  6A3   :    3;
  6A4   :    F;
  6A5   :   3F;
  6A6   :   3F;
  6A7   :   3F;
  6A8   :   84;
  6A9   :    4;
  6AA   :   EC;
  6AB   :   E0;
  6AC   :    0;
  6AD   :   80;
  6AE   :   80;
  6AF   :   80;
  6B0   :   80;
  6B1   :   80;
  6B2   :   80;
  6B3   :   C0;
  6B4   :   C0;
  6B5   :   E0;
  6B6   :   F8;
  6B7   :   FF;
  6B8   :   C0;
  6B9   :   C0;
  6BA   :   C0;
  6BB   :   E0;
  6BC   :   E0;
  6BD   :   F8;
  6BE   :   FF;
  6BF   :   FF;
  6C0   :   2C;
  6C1   :   22;
  6C2   :   1F;
  6C3   :   12;
  6C4   :   3F;
  6C5   :    0;
  6C6   :    0;
  6C7   :    0;
  6C8   :   80;
  6C9   :   80;
  6CA   :   80;
  6CB   :   AD;
  6CC   :   80;
  6CD   :   80;
  6CE   :   80;
  6CF   :   FF;
  6D0   :   34;
  6D1   :   44;
  6D2   :   F8;
  6D3   :   48;
  6D4   :   FC;
  6D5   :    0;
  6D6   :    0;
  6D7   :    0;
  6D8   :    1;
  6D9   :    1;
  6DA   :    1;
  6DB   :   B5;
  6DC   :    1;
  6DD   :    1;
  6DE   :    1;
  6DF   :   FF;
  6E0   :    1;
  6E1   :    1;
  6E2   :    1;
  6E3   :    3;
  6E4   :    3;
  6E5   :    7;
  6E6   :   1F;
  6E7   :   FF;
  6E8   :    3;
  6E9   :    3;
  6EA   :    3;
  6EB   :    7;
  6EC   :    7;
  6ED   :   1F;
  6EE   :   FF;
  6EF   :   FF;
  6F0   :    0;
  6F1   :    0;
  6F2   :    0;
  6F3   :    0;
  6F4   :    0;
  6F5   :    0;
  6F6   :    0;
  6F7   :    0;
  6F8   :   FF;
  6F9   :    1;
  6FA   :    1;
  6FB   :    1;
  6FC   :    1;
  6FD   :    1;
  6FE   :    1;
  6FF   :    1;
  700   :   FC;
  701   :   FE;
  702   :   FE;
  703   :   FE;
  704   :   FE;
  705   :   FE;
  706   :   FC;
  707   :    0;
  708   :    0;
  709   :   F8;
  70A   :    0;
  70B   :    0;
  70C   :    0;
  70D   :    0;
  70E   :    0;
  70F   :    0;
  710   :    0;
  711   :   F8;
  712   :    0;
  713   :    0;
  714   :    0;
  715   :    0;
  716   :    0;
  717   :    0;
  718   :   FC;
  719   :    6;
  71A   :   FE;
  71B   :   FE;
  71C   :   FE;
  71D   :   FE;
  71E   :   FC;
  71F   :    0;
  720   :   FC;
  721   :   FE;
  722   :   FE;
  723   :   FE;
  724   :   FE;
  725   :   FE;
  726   :   FC;
  727   :    0;
  728   :   FC;
  729   :    6;
  72A   :   FE;
  72B   :   FE;
  72C   :   FE;
  72D   :   FE;
  72E   :   FC;
  72F   :    0;
  730   :    0;
  731   :    0;
  732   :    0;
  733   :   FF;
  734   :   FF;
  735   :   FF;
  736   :   FF;
  737   :   FF;
  738   :    0;
  739   :   FF;
  73A   :   FF;
  73B   :   FF;
  73C   :   FF;
  73D   :   FF;
  73E   :   FF;
  73F   :   FF;
  740   :   FF;
  741   :   FF;
  742   :   FF;
  743   :   FF;
  744   :   FF;
  745   :    0;
  746   :    0;
  747   :   FF;
  748   :   FF;
  749   :   FF;
  74A   :   FF;
  74B   :   FF;
  74C   :   FF;
  74D   :   FF;
  74E   :    0;
  74F   :    0;
  750   :    0;
  751   :    0;
  752   :    0;
  753   :    0;
  754   :    0;
  755   :   FF;
  756   :   FF;
  757   :    0;
  758   :   FF;
  759   :   FF;
  75A   :   FF;
  75B   :   FF;
  75C   :    0;
  75D   :    0;
  75E   :    0;
  75F   :    0;
  760   :    0;
  761   :    0;
  762   :    0;
  763   :    0;
  764   :    0;
  765   :    0;
  766   :    0;
  767   :   40;
  768   :    0;
  769   :    0;
  76A   :    0;
  76B   :    0;
  76C   :   60;
  76D   :   70;
  76E   :   10;
  76F   :   50;
  770   :   FF;
  771   :   F9;
  772   :   F9;
  773   :   F8;
  774   :   FC;
  775   :   FE;
  776   :   FF;
  777   :   FF;
  778   :   E0;
  779   :   E0;
  77A   :   E0;
  77B   :   E0;
  77C   :   E0;
  77D   :   E0;
  77E   :   E0;
  77F   :   E0;
  780   :   FF;
  781   :   CC;
  782   :   CF;
  783   :   8F;
  784   :   1F;
  785   :   3F;
  786   :   7C;
  787   :   FF;
  788   :    0;
  789   :    0;
  78A   :    0;
  78B   :    0;
  78C   :    0;
  78D   :    0;
  78E   :    0;
  78F   :    0;
  790   :   FC;
  791   :   FC;
  792   :   FC;
  793   :   FC;
  794   :   FC;
  795   :   FC;
  796   :   FC;
  797   :   FC;
  798   :    1;
  799   :    1;
  79A   :    1;
  79B   :    1;
  79C   :    1;
  79D   :    1;
  79E   :    1;
  79F   :    1;
  7A0   :   3F;
  7A1   :   3F;
  7A2   :   3F;
  7A3   :   3F;
  7A4   :   3F;
  7A5   :   3F;
  7A6   :   3F;
  7A7   :   3F;
  7A8   :   80;
  7A9   :   80;
  7AA   :   80;
  7AB   :   80;
  7AC   :   80;
  7AD   :   80;
  7AE   :   80;
  7AF   :   80;
  7B0   :    0;
  7B1   :    0;
  7B2   :    0;
  7B3   :    0;
  7B4   :    0;
  7B5   :    0;
  7B6   :    0;
  7B7   :    0;
  7B8   :   10;
  7B9   :   1F;
  7BA   :   1F;
  7BB   :    0;
  7BC   :    0;
  7BD   :    0;
  7BE   :    0;
  7BF   :    0;
  7C0   :    7;
  7C1   :    7;
  7C2   :    7;
  7C3   :   FF;
  7C4   :   FF;
  7C5   :   FF;
  7C6   :   FF;
  7C7   :   FF;
  7C8   :    F;
  7C9   :   FF;
  7CA   :   FF;
  7CB   :   FF;
  7CC   :   FF;
  7CD   :   FF;
  7CE   :   FF;
  7CF   :   FF;
  7D0   :   FF;
  7D1   :   FF;
  7D2   :   FF;
  7D3   :    0;
  7D4   :    0;
  7D5   :    0;
  7D6   :    0;
  7D7   :   FF;
  7D8   :   FF;
  7D9   :   FF;
  7DA   :    0;
  7DB   :   FF;
  7DC   :   FF;
  7DD   :    0;
  7DE   :    0;
  7DF   :    0;
  7E0   :    0;
  7E1   :    0;
  7E2   :   FF;
  7E3   :    0;
  7E4   :    0;
  7E5   :    0;
  7E6   :    0;
  7E7   :   FF;
  7E8   :    0;
  7E9   :    0;
  7EA   :    0;
  7EB   :   FF;
  7EC   :   FF;
  7ED   :    0;
  7EE   :    0;
  7EF   :    0;
  7F0   :    0;
  7F1   :    0;
  7F2   :    0;
  7F3   :    0;
  7F4   :    0;
  7F5   :    0;
  7F6   :    0;
  7F7   :    0;
  7F8   :    1;
  7F9   :    1;
  7FA   :    1;
  7FB   :    1;
  7FC   :    1;
  7FD   :    1;
  7FE   :    1;
  7FF   :   FF;
  800   :   7C;
  801   :   FE;
  802   :   FE;
  803   :   FE;
  804   :   FE;
  805   :   FE;
  806   :   7C;
  807   :    0;
  808   :    0;
  809   :   20;
  80A   :   40;
  80B   :   40;
  80C   :   40;
  80D   :    0;
  80E   :    0;
  80F   :    0;
  810   :    0;
  811   :   20;
  812   :   40;
  813   :   40;
  814   :   40;
  815   :    0;
  816   :    0;
  817   :    0;
  818   :   7C;
  819   :   DE;
  81A   :   BE;
  81B   :   BE;
  81C   :   BE;
  81D   :   FE;
  81E   :   7C;
  81F   :    0;
  820   :   7C;
  821   :   FE;
  822   :   FE;
  823   :   FE;
  824   :   FE;
  825   :   FE;
  826   :   7C;
  827   :    0;
  828   :   7C;
  829   :   DE;
  82A   :   BE;
  82B   :   BE;
  82C   :   BE;
  82D   :   FE;
  82E   :   7C;
  82F   :    0;
  830   :   60;
  831   :   60;
  832   :   60;
  833   :   60;
  834   :   60;
  835   :   60;
  836   :   B0;
  837   :   B0;
  838   :    F;
  839   :    F;
  83A   :    F;
  83B   :    F;
  83C   :    F;
  83D   :    F;
  83E   :   87;
  83F   :   87;
  840   :    6;
  841   :    6;
  842   :    6;
  843   :    6;
  844   :    6;
  845   :    6;
  846   :    D;
  847   :    D;
  848   :   F0;
  849   :   F0;
  84A   :   F0;
  84B   :   F0;
  84C   :   F0;
  84D   :   F0;
  84E   :   E1;
  84F   :   E1;
  850   :   6F;
  851   :   5F;
  852   :   5F;
  853   :   BF;
  854   :   BF;
  855   :   DF;
  856   :   E7;
  857   :   F8;
  858   :   10;
  859   :   20;
  85A   :   20;
  85B   :   80;
  85C   :   80;
  85D   :   C0;
  85E   :   E0;
  85F   :   F8;
  860   :   FE;
  861   :   FC;
  862   :   F8;
  863   :   F0;
  864   :   E0;
  865   :   C0;
  866   :    0;
  867   :    0;
  868   :    0;
  869   :    0;
  86A   :    0;
  86B   :    0;
  86C   :    0;
  86D   :    0;
  86E   :    0;
  86F   :    0;
  870   :   FF;
  871   :    8;
  872   :   39;
  873   :   39;
  874   :   38;
  875   :   39;
  876   :    9;
  877   :   FF;
  878   :    0;
  879   :    0;
  87A   :    0;
  87B   :    0;
  87C   :    0;
  87D   :    0;
  87E   :    0;
  87F   :    0;
  880   :   FF;
  881   :   19;
  882   :   C9;
  883   :   89;
  884   :   39;
  885   :   19;
  886   :   8C;
  887   :   FF;
  888   :    0;
  889   :    0;
  88A   :    0;
  88B   :    0;
  88C   :    0;
  88D   :    0;
  88E   :    0;
  88F   :    0;
  890   :    0;
  891   :    0;
  892   :    0;
  893   :    0;
  894   :    0;
  895   :    0;
  896   :    0;
  897   :    0;
  898   :    0;
  899   :    0;
  89A   :    0;
  89B   :    0;
  89C   :    0;
  89D   :    0;
  89E   :    0;
  89F   :    0;
  8A0   :   FF;
  8A1   :   FF;
  8A2   :   FF;
  8A3   :   FF;
  8A4   :   FF;
  8A5   :   FF;
  8A6   :   FF;
  8A7   :   FF;
  8A8   :   FF;
  8A9   :   FF;
  8AA   :   FF;
  8AB   :   FF;
  8AC   :   FF;
  8AD   :   FF;
  8AE   :   FF;
  8AF   :   FF;
  8B0   :    0;
  8B1   :    0;
  8B2   :    0;
  8B3   :    0;
  8B4   :    0;
  8B5   :    3;
  8B6   :    6;
  8B7   :    5;
  8B8   :    0;
  8B9   :    0;
  8BA   :   1F;
  8BB   :   3F;
  8BC   :   3C;
  8BD   :   3B;
  8BE   :   36;
  8BF   :   34;
  8C0   :    0;
  8C1   :    0;
  8C2   :    0;
  8C3   :    0;
  8C4   :    0;
  8C5   :   FF;
  8C6   :    0;
  8C7   :   FF;
  8C8   :    0;
  8C9   :    0;
  8CA   :   FF;
  8CB   :   FF;
  8CC   :    0;
  8CD   :   FF;
  8CE   :    0;
  8CF   :    0;
  8D0   :    0;
  8D1   :    0;
  8D2   :    0;
  8D3   :    0;
  8D4   :    0;
  8D5   :   C0;
  8D6   :   60;
  8D7   :   A0;
  8D8   :    0;
  8D9   :    0;
  8DA   :   F8;
  8DB   :   FC;
  8DC   :   3C;
  8DD   :   DC;
  8DE   :   6C;
  8DF   :   2C;
  8E0   :    5;
  8E1   :    5;
  8E2   :    5;
  8E3   :    5;
  8E4   :    5;
  8E5   :    5;
  8E6   :    5;
  8E7   :    5;
  8E8   :   34;
  8E9   :   34;
  8EA   :   34;
  8EB   :   34;
  8EC   :   34;
  8ED   :   34;
  8EE   :   34;
  8EF   :   34;
  8F0   :   A0;
  8F1   :   A0;
  8F2   :   A0;
  8F3   :   A0;
  8F4   :   A0;
  8F5   :   A0;
  8F6   :   A0;
  8F7   :   A0;
  8F8   :   2C;
  8F9   :   2C;
  8FA   :   2C;
  8FB   :   2C;
  8FC   :   2C;
  8FD   :   2C;
  8FE   :   2C;
  8FF   :   2C;
  900   :    0;
  901   :    0;
  902   :    0;
  903   :    0;
  904   :    1;
  905   :    7;
  906   :   1E;
  907   :   38;
  908   :    0;
  909   :    0;
  90A   :    0;
  90B   :    0;
  90C   :    0;
  90D   :    0;
  90E   :    0;
  90F   :    1;
  910   :   FF;
  911   :   F0;
  912   :   8F;
  913   :   7F;
  914   :   F0;
  915   :   80;
  916   :    0;
  917   :    0;
  918   :   FF;
  919   :   F0;
  91A   :   80;
  91B   :    0;
  91C   :    0;
  91D   :    F;
  91E   :   7F;
  91F   :   FF;
  920   :    0;
  921   :    1;
  922   :    7;
  923   :    E;
  924   :   1C;
  925   :   38;
  926   :   30;
  927   :   60;
  928   :    0;
  929   :    0;
  92A   :    0;
  92B   :    0;
  92C   :    1;
  92D   :    3;
  92E   :    7;
  92F   :    F;
  930   :   E0;
  931   :   C0;
  932   :   80;
  933   :    0;
  934   :    0;
  935   :    0;
  936   :    0;
  937   :    0;
  938   :    7;
  939   :   1F;
  93A   :   3F;
  93B   :   7F;
  93C   :   FF;
  93D   :   FF;
  93E   :   FF;
  93F   :   FF;
  940   :    0;
  941   :    0;
  942   :    1;
  943   :    3;
  944   :    3;
  945   :    6;
  946   :    6;
  947   :    C;
  948   :    0;
  949   :    0;
  94A   :    0;
  94B   :    0;
  94C   :    0;
  94D   :    0;
  94E   :    0;
  94F   :    1;
  950   :   C0;
  951   :   C0;
  952   :   80;
  953   :    0;
  954   :    0;
  955   :    0;
  956   :    0;
  957   :    0;
  958   :   1F;
  959   :   1F;
  95A   :   3F;
  95B   :   7F;
  95C   :   7F;
  95D   :   FF;
  95E   :   FF;
  95F   :   FF;
  960   :   EC;
  961   :   EC;
  962   :   D8;
  963   :   D8;
  964   :   D8;
  965   :   B0;
  966   :   B0;
  967   :   B0;
  968   :   E1;
  969   :   E1;
  96A   :   C3;
  96B   :   C3;
  96C   :   C3;
  96D   :   87;
  96E   :   87;
  96F   :   87;
  970   :   FF;
  971   :   CC;
  972   :   C9;
  973   :   CC;
  974   :   CF;
  975   :   C9;
  976   :   1C;
  977   :   FF;
  978   :    0;
  979   :    0;
  97A   :    0;
  97B   :    0;
  97C   :    0;
  97D   :    0;
  97E   :    0;
  97F   :    0;
  980   :   FC;
  981   :   1C;
  982   :   FC;
  983   :   1C;
  984   :   CC;
  985   :   CC;
  986   :   1C;
  987   :   FC;
  988   :    0;
  989   :    0;
  98A   :    0;
  98B   :    0;
  98C   :    0;
  98D   :    0;
  98E   :    0;
  98F   :    0;
  990   :   FF;
  991   :   FF;
  992   :   C1;
  993   :   C1;
  994   :   F3;
  995   :   F3;
  996   :   F3;
  997   :   FF;
  998   :   FF;
  999   :   FF;
  99A   :   FF;
  99B   :   C9;
  99C   :   FB;
  99D   :   FB;
  99E   :   FB;
  99F   :   FF;
  9A0   :    0;
  9A1   :    0;
  9A2   :    0;
  9A3   :    0;
  9A4   :    0;
  9A5   :    0;
  9A6   :    0;
  9A7   :    0;
  9A8   :    0;
  9A9   :    0;
  9AA   :   6C;
  9AB   :   54;
  9AC   :   54;
  9AD   :   44;
  9AE   :   44;
  9AF   :    0;
  9B0   :    0;
  9B1   :    0;
  9B2   :    0;
  9B3   :    0;
  9B4   :    0;
  9B5   :    0;
  9B6   :    0;
  9B7   :    0;
  9B8   :    0;
  9B9   :    0;
  9BA   :    0;
  9BB   :    0;
  9BC   :    0;
  9BD   :    0;
  9BE   :    0;
  9BF   :    0;
  9C0   :    0;
  9C1   :    0;
  9C2   :    0;
  9C3   :    0;
  9C4   :    0;
  9C5   :    0;
  9C6   :    0;
  9C7   :    0;
  9C8   :    0;
  9C9   :    0;
  9CA   :    0;
  9CB   :    0;
  9CC   :    0;
  9CD   :    0;
  9CE   :    0;
  9CF   :    0;
  9D0   :    0;
  9D1   :    0;
  9D2   :    0;
  9D3   :    0;
  9D4   :    0;
  9D5   :    0;
  9D6   :    0;
  9D7   :    0;
  9D8   :    0;
  9D9   :    0;
  9DA   :    0;
  9DB   :    0;
  9DC   :    0;
  9DD   :    0;
  9DE   :    0;
  9DF   :    0;
  9E0   :    0;
  9E1   :    0;
  9E2   :    0;
  9E3   :    0;
  9E4   :    0;
  9E5   :    0;
  9E6   :    0;
  9E7   :    0;
  9E8   :    0;
  9E9   :    0;
  9EA   :    0;
  9EB   :    0;
  9EC   :    0;
  9ED   :    0;
  9EE   :    0;
  9EF   :    0;
  9F0   :    0;
  9F1   :    0;
  9F2   :    0;
  9F3   :    0;
  9F4   :    0;
  9F5   :    0;
  9F6   :    0;
  9F7   :    0;
  9F8   :    0;
  9F9   :    0;
  9FA   :    0;
  9FB   :    0;
  9FC   :    0;
  9FD   :    0;
  9FE   :    0;
  9FF   :    0;
  A00   :   FF;
  A01   :    F;
  A02   :   F1;
  A03   :   FE;
  A04   :    F;
  A05   :    1;
  A06   :    0;
  A07   :    0;
  A08   :   FF;
  A09   :    F;
  A0A   :    1;
  A0B   :    0;
  A0C   :    0;
  A0D   :   F0;
  A0E   :   FE;
  A0F   :   FF;
  A10   :    0;
  A11   :    0;
  A12   :    0;
  A13   :    0;
  A14   :   80;
  A15   :   E0;
  A16   :   78;
  A17   :   1C;
  A18   :    0;
  A19   :    0;
  A1A   :    0;
  A1B   :    0;
  A1C   :    0;
  A1D   :    0;
  A1E   :    0;
  A1F   :   80;
  A20   :    7;
  A21   :    3;
  A22   :    1;
  A23   :    0;
  A24   :    0;
  A25   :    0;
  A26   :    0;
  A27   :    0;
  A28   :   E0;
  A29   :   F8;
  A2A   :   FC;
  A2B   :   FE;
  A2C   :   FF;
  A2D   :   FF;
  A2E   :   FF;
  A2F   :   FF;
  A30   :    0;
  A31   :   80;
  A32   :   E0;
  A33   :   70;
  A34   :   38;
  A35   :   1C;
  A36   :    C;
  A37   :    6;
  A38   :    0;
  A39   :    0;
  A3A   :    0;
  A3B   :    0;
  A3C   :   80;
  A3D   :   C0;
  A3E   :   E0;
  A3F   :   F0;
  A40   :    3;
  A41   :    3;
  A42   :    1;
  A43   :    0;
  A44   :    0;
  A45   :    0;
  A46   :    0;
  A47   :    0;
  A48   :   F8;
  A49   :   F8;
  A4A   :   FC;
  A4B   :   FE;
  A4C   :   FE;
  A4D   :   FF;
  A4E   :   FF;
  A4F   :   FF;
  A50   :    0;
  A51   :    0;
  A52   :   80;
  A53   :   C0;
  A54   :   C0;
  A55   :   60;
  A56   :   60;
  A57   :   30;
  A58   :    0;
  A59   :    0;
  A5A   :    0;
  A5B   :    0;
  A5C   :    0;
  A5D   :    0;
  A5E   :    0;
  A5F   :   80;
  A60   :   37;
  A61   :   37;
  A62   :   1B;
  A63   :   1B;
  A64   :   1B;
  A65   :    D;
  A66   :    D;
  A67   :    D;
  A68   :   87;
  A69   :   87;
  A6A   :   C3;
  A6B   :   C3;
  A6C   :   C3;
  A6D   :   E1;
  A6E   :   E1;
  A6F   :   E1;
  A70   :   FF;
  A71   :   F9;
  A72   :   F9;
  A73   :   F9;
  A74   :   F9;
  A75   :   F9;
  A76   :   F9;
  A77   :   F8;
  A78   :    0;
  A79   :    0;
  A7A   :    0;
  A7B   :    0;
  A7C   :    0;
  A7D   :    0;
  A7E   :    0;
  A7F   :    0;
  A80   :   FF;
  A81   :   F0;
  A82   :   F3;
  A83   :   F3;
  A84   :   F0;
  A85   :   F3;
  A86   :   F3;
  A87   :   10;
  A88   :    0;
  A89   :    0;
  A8A   :    0;
  A8B   :    0;
  A8C   :    0;
  A8D   :    0;
  A8E   :    0;
  A8F   :    0;
  A90   :   FF;
  A91   :   80;
  A92   :    0;
  A93   :    0;
  A94   :    0;
  A95   :    0;
  A96   :    0;
  A97   :   80;
  A98   :   FF;
  A99   :   80;
  A9A   :   7F;
  A9B   :   FF;
  A9C   :   FF;
  A9D   :   FF;
  A9E   :   7F;
  A9F   :   BF;
  AA0   :    0;
  AA1   :    0;
  AA2   :    0;
  AA3   :    0;
  AA4   :    0;
  AA5   :    0;
  AA6   :    0;
  AA7   :    0;
  AA8   :    0;
  AA9   :    0;
  AAA   :   80;
  AAB   :   E0;
  AAC   :   F0;
  AAD   :   F8;
  AAE   :   F8;
  AAF   :   FC;
  AB0   :   FF;
  AB1   :   FF;
  AB2   :   FE;
  AB3   :   FC;
  AB4   :   FC;
  AB5   :   FC;
  AB6   :   FC;
  AB7   :   FE;
  AB8   :   FF;
  AB9   :   FF;
  ABA   :   FE;
  ABB   :   FD;
  ABC   :   FD;
  ABD   :   FD;
  ABE   :   FD;
  ABF   :   FE;
  AC0   :    0;
  AC1   :    0;
  AC2   :    0;
  AC3   :    1;
  AC4   :    0;
  AC5   :    0;
  AC6   :    0;
  AC7   :    0;
  AC8   :    0;
  AC9   :    0;
  ACA   :   F0;
  ACB   :   F1;
  ACC   :   F9;
  ACD   :   F9;
  ACE   :   FF;
  ACF   :   FF;
  AD0   :   FF;
  AD1   :    F;
  AD2   :    6;
  AD3   :    0;
  AD4   :    0;
  AD5   :    0;
  AD6   :    0;
  AD7   :    6;
  AD8   :   FF;
  AD9   :    F;
  ADA   :   F6;
  ADB   :   F9;
  ADC   :   F9;
  ADD   :   F9;
  ADE   :   F9;
  ADF   :   F6;
  AE0   :    0;
  AE1   :    0;
  AE2   :    0;
  AE3   :    0;
  AE4   :    0;
  AE5   :    0;
  AE6   :    0;
  AE7   :    0;
  AE8   :    0;
  AE9   :    0;
  AEA   :   FF;
  AEB   :   FF;
  AEC   :   FF;
  AED   :   FF;
  AEE   :   FF;
  AEF   :   F7;
  AF0   :   FF;
  AF1   :   70;
  AF2   :   20;
  AF3   :    0;
  AF4   :    0;
  AF5   :    0;
  AF6   :    0;
  AF7   :   20;
  AF8   :   FF;
  AF9   :   70;
  AFA   :   AF;
  AFB   :   DF;
  AFC   :   DF;
  AFD   :   DF;
  AFE   :   DF;
  AFF   :   AF;
  B00   :    C;
  B01   :    C;
  B02   :    C;
  B03   :   18;
  B04   :   18;
  B05   :   18;
  B06   :   30;
  B07   :   30;
  B08   :   E0;
  B09   :   E0;
  B0A   :   E0;
  B0B   :   C0;
  B0C   :   C0;
  B0D   :   C0;
  B0E   :   80;
  B0F   :   80;
  B10   :    0;
  B11   :    0;
  B12   :    0;
  B13   :    0;
  B14   :    0;
  B15   :    1;
  B16   :    3;
  B17   :    3;
  B18   :   FF;
  B19   :   FF;
  B1A   :   FF;
  B1B   :   FE;
  B1C   :   FE;
  B1D   :   FC;
  B1E   :   F8;
  B1F   :   F8;
  B20   :   37;
  B21   :   6F;
  B22   :   6F;
  B23   :   CF;
  B24   :   DF;
  B25   :   BF;
  B26   :   7F;
  B27   :   7F;
  B28   :   87;
  B29   :    F;
  B2A   :    F;
  B2B   :    F;
  B2C   :   1F;
  B2D   :   3F;
  B2E   :   7F;
  B2F   :   7F;
  B30   :    0;
  B31   :    0;
  B32   :    0;
  B33   :    0;
  B34   :    0;
  B35   :    1;
  B36   :    3;
  B37   :    7;
  B38   :   FF;
  B39   :   FF;
  B3A   :   FF;
  B3B   :   FF;
  B3C   :   FE;
  B3D   :   FC;
  B3E   :   F8;
  B3F   :   E0;
  B40   :    6;
  B41   :    D;
  B42   :   1D;
  B43   :   3B;
  B44   :   77;
  B45   :   EF;
  B46   :   9F;
  B47   :   7F;
  B48   :   F0;
  B49   :   E1;
  B4A   :   C1;
  B4B   :   83;
  B4C   :    7;
  B4D   :    F;
  B4E   :   1F;
  B4F   :   7F;
  B50   :    0;
  B51   :    0;
  B52   :    1;
  B53   :    F;
  B54   :   FE;
  B55   :   F0;
  B56   :    0;
  B57   :    0;
  B58   :   FF;
  B59   :   FE;
  B5A   :   F0;
  B5B   :    0;
  B5C   :    0;
  B5D   :    0;
  B5E   :    0;
  B5F   :    0;
  B60   :   1C;
  B61   :   7B;
  B62   :   E7;
  B63   :   9F;
  B64   :   7F;
  B65   :   FF;
  B66   :   FF;
  B67   :   FF;
  B68   :   80;
  B69   :    3;
  B6A   :    7;
  B6B   :   1F;
  B6C   :   7F;
  B6D   :   FF;
  B6E   :   FF;
  B6F   :   FF;
  B70   :   FF;
  B71   :   13;
  B72   :   F3;
  B73   :   F3;
  B74   :   31;
  B75   :   F8;
  B76   :   FC;
  B77   :   1E;
  B78   :    0;
  B79   :    0;
  B7A   :    0;
  B7B   :    0;
  B7C   :    0;
  B7D   :    0;
  B7E   :    0;
  B7F   :    0;
  B80   :   FF;
  B81   :   90;
  B82   :   93;
  B83   :   93;
  B84   :   10;
  B85   :   33;
  B86   :   73;
  B87   :   F0;
  B88   :    0;
  B89   :    0;
  B8A   :    0;
  B8B   :    0;
  B8C   :    0;
  B8D   :    0;
  B8E   :    0;
  B8F   :    0;
  B90   :    0;
  B91   :    0;
  B92   :    0;
  B93   :    0;
  B94   :    0;
  B95   :    0;
  B96   :    0;
  B97   :    0;
  B98   :   3E;
  B99   :   3E;
  B9A   :   3E;
  B9B   :   3E;
  B9C   :   3E;
  B9D   :   3E;
  B9E   :   3E;
  B9F   :   3E;
  BA0   :    0;
  BA1   :    0;
  BA2   :    0;
  BA3   :    0;
  BA4   :    0;
  BA5   :    0;
  BA6   :    0;
  BA7   :    0;
  BA8   :   FC;
  BA9   :   7C;
  BAA   :   7C;
  BAB   :   7D;
  BAC   :   7D;
  BAD   :   7D;
  BAE   :   7D;
  BAF   :   FD;
  BB0   :    0;
  BB1   :    0;
  BB2   :    0;
  BB3   :    0;
  BB4   :    0;
  BB5   :    0;
  BB6   :    0;
  BB7   :    0;
  BB8   :    0;
  BB9   :    0;
  BBA   :   C0;
  BBB   :   EC;
  BBC   :   FE;
  BBD   :   FE;
  BBE   :   EC;
  BBF   :   E0;
  BC0   :    0;
  BC1   :    0;
  BC2   :    0;
  BC3   :    0;
  BC4   :    0;
  BC5   :    0;
  BC6   :    0;
  BC7   :    0;
  BC8   :   FF;
  BC9   :   FF;
  BCA   :   FF;
  BCB   :   FF;
  BCC   :   F6;
  BCD   :   F6;
  BCE   :   F0;
  BCF   :   F0;
  BD0   :    0;
  BD1   :    0;
  BD2   :    0;
  BD3   :    0;
  BD4   :    0;
  BD5   :    0;
  BD6   :    0;
  BD7   :    0;
  BD8   :   F0;
  BD9   :   F0;
  BDA   :   F0;
  BDB   :   F1;
  BDC   :   F1;
  BDD   :   F1;
  BDE   :   F1;
  BDF   :   F3;
  BE0   :    0;
  BE1   :    0;
  BE2   :    0;
  BE3   :    0;
  BE4   :    0;
  BE5   :    0;
  BE6   :    8;
  BE7   :    8;
  BE8   :   E3;
  BE9   :   FF;
  BEA   :   FF;
  BEB   :   FF;
  BEC   :   FF;
  BED   :   E3;
  BEE   :   EB;
  BEF   :   EB;
  BF0   :    0;
  BF1   :    0;
  BF2   :    0;
  BF3   :    0;
  BF4   :    0;
  BF5   :    0;
  BF6   :    0;
  BF7   :    0;
  BF8   :   8F;
  BF9   :   8F;
  BFA   :   8F;
  BFB   :   CF;
  BFC   :   CF;
  BFD   :   CF;
  BFE   :   CF;
  BFF   :   EF;
  C00   :   30;
  C01   :   30;
  C02   :   30;
  C03   :   18;
  C04   :   18;
  C05   :   18;
  C06   :    C;
  C07   :    C;
  C08   :    7;
  C09   :    7;
  C0A   :    7;
  C0B   :    3;
  C0C   :    3;
  C0D   :    3;
  C0E   :    1;
  C0F   :    1;
  C10   :   EC;
  C11   :   F6;
  C12   :   F6;
  C13   :   FB;
  C14   :   FB;
  C15   :   FD;
  C16   :   FE;
  C17   :   FE;
  C18   :   E1;
  C19   :   F0;
  C1A   :   F0;
  C1B   :   F8;
  C1C   :   F8;
  C1D   :   FC;
  C1E   :   FE;
  C1F   :   FE;
  C20   :    0;
  C21   :    0;
  C22   :    0;
  C23   :    0;
  C24   :    0;
  C25   :   80;
  C26   :   C0;
  C27   :   C0;
  C28   :   FF;
  C29   :   FF;
  C2A   :   FF;
  C2B   :   7F;
  C2C   :   7F;
  C2D   :   3F;
  C2E   :   1F;
  C2F   :   1F;
  C30   :   60;
  C31   :   30;
  C32   :   38;
  C33   :   DC;
  C34   :   EE;
  C35   :   F7;
  C36   :   79;
  C37   :   B8;
  C38   :    F;
  C39   :    7;
  C3A   :    3;
  C3B   :    1;
  C3C   :    0;
  C3D   :    0;
  C3E   :    0;
  C3F   :    0;
  C40   :    0;
  C41   :    0;
  C42   :    0;
  C43   :    0;
  C44   :    0;
  C45   :   80;
  C46   :   C0;
  C47   :   E0;
  C48   :   FF;
  C49   :   FF;
  C4A   :   FF;
  C4B   :   FF;
  C4C   :   7F;
  C4D   :   3F;
  C4E   :   1F;
  C4F   :    7;
  C50   :   38;
  C51   :   DE;
  C52   :   E7;
  C53   :   F9;
  C54   :   FE;
  C55   :   FF;
  C56   :   FF;
  C57   :   FF;
  C58   :    1;
  C59   :   C0;
  C5A   :   E0;
  C5B   :   F8;
  C5C   :   FE;
  C5D   :   FF;
  C5E   :   FF;
  C5F   :   FF;
  C60   :    0;
  C61   :    0;
  C62   :   80;
  C63   :   F0;
  C64   :   7F;
  C65   :    F;
  C66   :    0;
  C67   :    0;
  C68   :   FF;
  C69   :   7F;
  C6A   :    F;
  C6B   :    0;
  C6C   :    0;
  C6D   :    0;
  C6E   :    0;
  C6F   :    0;
  C70   :   FF;
  C71   :   19;
  C72   :   F9;
  C73   :   F9;
  C74   :   39;
  C75   :   F9;
  C76   :   F9;
  C77   :   18;
  C78   :    0;
  C79   :    0;
  C7A   :    0;
  C7B   :    0;
  C7C   :    0;
  C7D   :    0;
  C7E   :    0;
  C7F   :    0;
  C80   :   FF;
  C81   :   FF;
  C82   :   FF;
  C83   :   FF;
  C84   :   FF;
  C85   :   FF;
  C86   :   FF;
  C87   :   1F;
  C88   :    0;
  C89   :    0;
  C8A   :    0;
  C8B   :    0;
  C8C   :    0;
  C8D   :    0;
  C8E   :    0;
  C8F   :    0;
  C90   :   80;
  C91   :    0;
  C92   :    0;
  C93   :    0;
  C94   :    0;
  C95   :    0;
  C96   :   80;
  C97   :   FF;
  C98   :   BF;
  C99   :   7F;
  C9A   :   FF;
  C9B   :   FF;
  C9C   :   FF;
  C9D   :   7F;
  C9E   :   80;
  C9F   :   FF;
  CA0   :    0;
  CA1   :    0;
  CA2   :    0;
  CA3   :    0;
  CA4   :    0;
  CA5   :    0;
  CA6   :    0;
  CA7   :    0;
  CA8   :   FD;
  CA9   :   F9;
  CAA   :   F9;
  CAB   :   F1;
  CAC   :   E1;
  CAD   :   80;
  CAE   :    0;
  CAF   :    0;
  CB0   :    E;
  CB1   :    C;
  CB2   :    C;
  CB3   :    0;
  CB4   :    0;
  CB5   :    0;
  CB6   :   33;
  CB7   :   FF;
  CB8   :   EE;
  CB9   :   ED;
  CBA   :   ED;
  CBB   :   E1;
  CBC   :   ED;
  CBD   :   CC;
  CBE   :   33;
  CBF   :   FF;
  CC0   :    6;
  CC1   :    0;
  CC2   :    0;
  CC3   :    0;
  CC4   :    0;
  CC5   :    0;
  CC6   :    0;
  CC7   :    0;
  CC8   :   F6;
  CC9   :   F9;
  CCA   :   F9;
  CCB   :   F9;
  CCC   :   F9;
  CCD   :   F0;
  CCE   :    0;
  CCF   :    0;
  CD0   :    0;
  CD1   :    0;
  CD2   :    0;
  CD3   :    0;
  CD4   :    0;
  CD5   :    0;
  CD6   :    0;
  CD7   :   FF;
  CD8   :   F3;
  CD9   :   F3;
  CDA   :   FF;
  CDB   :   FF;
  CDC   :   FF;
  CDD   :   FF;
  CDE   :    0;
  CDF   :   FF;
  CE0   :    0;
  CE1   :    0;
  CE2   :    0;
  CE3   :    0;
  CE4   :    0;
  CE5   :    0;
  CE6   :    0;
  CE7   :    0;
  CE8   :   C1;
  CE9   :   C1;
  CEA   :   E3;
  CEB   :   E3;
  CEC   :   E3;
  CED   :   C1;
  CEE   :    0;
  CEF   :    0;
  CF0   :    0;
  CF1   :    0;
  CF2   :    0;
  CF3   :    0;
  CF4   :    0;
  CF5   :    0;
  CF6   :    0;
  CF7   :   FF;
  CF8   :   EF;
  CF9   :   EF;
  CFA   :   FF;
  CFB   :   FF;
  CFC   :   FF;
  CFD   :   FF;
  CFE   :    0;
  CFF   :   FF;
  D00   :   28;
  D01   :   BA;
  D02   :   44;
  D03   :   EE;
  D04   :   FE;
  D05   :   82;
  D06   :   7C;
  D07   :    0;
  D08   :   28;
  D09   :    0;
  D0A   :    0;
  D0B   :   28;
  D0C   :    0;
  D0D   :    0;
  D0E   :    0;
  D0F   :    0;
  D10   :    2;
  D11   :   80;
  D12   :   28;
  D13   :    0;
  D14   :   28;
  D15   :   80;
  D16   :    2;
  D17   :    0;
  D18   :   38;
  D19   :   44;
  D1A   :   AA;
  D1B   :   FE;
  D1C   :   82;
  D1D   :   C4;
  D1E   :   3A;
  D1F   :    0;
  D20   :    0;
  D21   :   7C;
  D22   :   D6;
  D23   :   AA;
  D24   :   FE;
  D25   :   D6;
  D26   :   44;
  D27   :    0;
  D28   :    0;
  D29   :   7C;
  D2A   :   D6;
  D2B   :   82;
  D2C   :   FE;
  D2D   :   C6;
  D2E   :   44;
  D2F   :    0;
  D30   :    3;
  D31   :    3;
  D32   :    3;
  D33   :    3;
  D34   :    3;
  D35   :    3;
  D36   :    3;
  D37   :    3;
  D38   :   78;
  D39   :   78;
  D3A   :   78;
  D3B   :   78;
  D3C   :   78;
  D3D   :   78;
  D3E   :   78;
  D3F   :   78;
  D40   :   C0;
  D41   :   C0;
  D42   :   C0;
  D43   :   C0;
  D44   :   C0;
  D45   :   C0;
  D46   :   C0;
  D47   :   C0;
  D48   :   1E;
  D49   :   1E;
  D4A   :   1E;
  D4B   :   1E;
  D4C   :   1E;
  D4D   :   1E;
  D4E   :   1E;
  D4F   :   1E;
  D50   :    0;
  D51   :    0;
  D52   :    0;
  D53   :    0;
  D54   :    0;
  D55   :    0;
  D56   :    0;
  D57   :    0;
  D58   :    0;
  D59   :    0;
  D5A   :    0;
  D5B   :    0;
  D5C   :    6;
  D5D   :    E;
  D5E   :    8;
  D5F   :    8;
  D60   :   FF;
  D61   :   FF;
  D62   :    0;
  D63   :   FF;
  D64   :   FF;
  D65   :   FF;
  D66   :    0;
  D67   :   FF;
  D68   :   FF;
  D69   :   FF;
  D6A   :    0;
  D6B   :    0;
  D6C   :    0;
  D6D   :    0;
  D6E   :    0;
  D6F   :    0;
  D70   :   FF;
  D71   :   FF;
  D72   :   FF;
  D73   :   1F;
  D74   :    F;
  D75   :    7;
  D76   :    7;
  D77   :   47;
  D78   :   FF;
  D79   :   FF;
  D7A   :   FF;
  D7B   :   1F;
  D7C   :   6F;
  D7D   :   77;
  D7E   :   17;
  D7F   :   57;
  D80   :   FF;
  D81   :    0;
  D82   :    0;
  D83   :    0;
  D84   :   FF;
  D85   :   FF;
  D86   :   FF;
  D87   :   FF;
  D88   :    0;
  D89   :    0;
  D8A   :   FF;
  D8B   :   FF;
  D8C   :   FF;
  D8D   :   FF;
  D8E   :   FF;
  D8F   :   FF;
  D90   :    0;
  D91   :    0;
  D92   :    0;
  D93   :    0;
  D94   :    0;
  D95   :    0;
  D96   :    0;
  D97   :    0;
  D98   :    0;
  D99   :    0;
  D9A   :   E0;
  D9B   :   F8;
  D9C   :   FC;
  D9D   :   FE;
  D9E   :   FE;
  D9F   :   1E;
  DA0   :   FF;
  DA1   :   87;
  DA2   :    3;
  DA3   :    1;
  DA4   :    1;
  DA5   :    0;
  DA6   :    0;
  DA7   :    0;
  DA8   :   FF;
  DA9   :   87;
  DAA   :   7B;
  DAB   :   FD;
  DAC   :   FD;
  DAD   :   FC;
  DAE   :   FC;
  DAF   :   79;
  DB0   :    0;
  DB1   :    0;
  DB2   :    0;
  DB3   :    0;
  DB4   :    0;
  DB5   :    0;
  DB6   :    0;
  DB7   :    0;
  DB8   :    0;
  DB9   :    0;
  DBA   :    0;
  DBB   :   1F;
  DBC   :   7F;
  DBD   :   FF;
  DBE   :   FF;
  DBF   :   FF;
  DC0   :    0;
  DC1   :    1;
  DC2   :    3;
  DC3   :    7;
  DC4   :    E;
  DC5   :   1D;
  DC6   :   3B;
  DC7   :   37;
  DC8   :    0;
  DC9   :    0;
  DCA   :    0;
  DCB   :    0;
  DCC   :    1;
  DCD   :    2;
  DCE   :    4;
  DCF   :    8;
  DD0   :   EE;
  DD1   :   DF;
  DD2   :   BF;
  DD3   :   7F;
  DD4   :   FF;
  DD5   :   FF;
  DD6   :   FF;
  DD7   :   FF;
  DD8   :   10;
  DD9   :   20;
  DDA   :   40;
  DDB   :   80;
  DDC   :    0;
  DDD   :    0;
  DDE   :    0;
  DDF   :    0;
  DE0   :   D8;
  DE1   :   68;
  DE2   :   B0;
  DE3   :   D0;
  DE4   :   E0;
  DE5   :   C0;
  DE6   :   80;
  DE7   :    0;
  DE8   :    0;
  DE9   :    0;
  DEA   :    0;
  DEB   :    0;
  DEC   :    0;
  DED   :    0;
  DEE   :    0;
  DEF   :    0;
  DF0   :    0;
  DF1   :    0;
  DF2   :    0;
  DF3   :    3;
  DF4   :    D;
  DF5   :   16;
  DF6   :   3B;
  DF7   :   71;
  DF8   :    0;
  DF9   :    0;
  DFA   :    0;
  DFB   :    0;
  DFC   :    0;
  DFD   :    0;
  DFE   :    0;
  DFF   :    C;
  E00   :   28;
  E01   :   BA;
  E02   :   44;
  E03   :   28;
  E04   :   7C;
  E05   :   44;
  E06   :   38;
  E07   :    0;
  E08   :   28;
  E09   :    0;
  E0A   :    0;
  E0B   :   28;
  E0C   :    0;
  E0D   :    0;
  E0E   :    0;
  E0F   :    0;
  E10   :   80;
  E11   :    2;
  E12   :   28;
  E13   :    0;
  E14   :   28;
  E15   :    2;
  E16   :   80;
  E17   :    0;
  E18   :   38;
  E19   :   44;
  E1A   :   AA;
  E1B   :   FE;
  E1C   :   82;
  E1D   :   46;
  E1E   :   B8;
  E1F   :    0;
  E20   :   C6;
  E21   :   38;
  E22   :   10;
  E23   :   AA;
  E24   :   FE;
  E25   :   92;
  E26   :   7C;
  E27   :    0;
  E28   :   C6;
  E29   :   38;
  E2A   :   10;
  E2B   :   82;
  E2C   :   FE;
  E2D   :   82;
  E2E   :   7C;
  E2F   :    0;
  E30   :    0;
  E31   :    0;
  E32   :    0;
  E33   :    0;
  E34   :    3;
  E35   :    3;
  E36   :    3;
  E37   :    3;
  E38   :    0;
  E39   :   3F;
  E3A   :   7F;
  E3B   :   78;
  E3C   :   78;
  E3D   :   78;
  E3E   :   78;
  E3F   :   78;
  E40   :    0;
  E41   :    0;
  E42   :    0;
  E43   :    0;
  E44   :   FF;
  E45   :   FF;
  E46   :   FF;
  E47   :   FF;
  E48   :    0;
  E49   :   FF;
  E4A   :   FF;
  E4B   :    0;
  E4C   :    0;
  E4D   :    0;
  E4E   :    0;
  E4F   :    0;
  E50   :    0;
  E51   :    0;
  E52   :    0;
  E53   :    1;
  E54   :   E0;
  E55   :   F0;
  E56   :   F8;
  E57   :   FF;
  E58   :    8;
  E59   :   EB;
  E5A   :   E8;
  E5B   :    8;
  E5C   :    5;
  E5D   :    1;
  E5E   :    0;
  E5F   :    0;
  E60   :    0;
  E61   :    0;
  E62   :    0;
  E63   :   FF;
  E64   :    0;
  E65   :    0;
  E66   :    0;
  E67   :   FF;
  E68   :    0;
  E69   :   FF;
  E6A   :    0;
  E6B   :    0;
  E6C   :   FF;
  E6D   :   FF;
  E6E   :    0;
  E6F   :    0;
  E70   :    0;
  E71   :    0;
  E72   :    0;
  E73   :   80;
  E74   :    7;
  E75   :    F;
  E76   :   1F;
  E77   :   FF;
  E78   :   10;
  E79   :   D7;
  E7A   :   17;
  E7B   :   10;
  E7C   :   A0;
  E7D   :   80;
  E7E   :    0;
  E7F   :    0;
  E80   :    3;
  E81   :    1;
  E82   :    0;
  E83   :    0;
  E84   :   C0;
  E85   :   C0;
  E86   :   C0;
  E87   :   C0;
  E88   :    3;
  E89   :   FD;
  E8A   :   FE;
  E8B   :   1E;
  E8C   :   1E;
  E8D   :   1E;
  E8E   :   1E;
  E8F   :   1E;
  E90   :    0;
  E91   :    0;
  E92   :    1;
  E93   :    1;
  E94   :    3;
  E95   :    1;
  E96   :    1;
  E97   :    0;
  E98   :   1E;
  E99   :   FE;
  E9A   :   FD;
  E9B   :   FD;
  E9C   :   FB;
  E9D   :   7D;
  E9E   :   3D;
  E9F   :   3E;
  EA0   :    0;
  EA1   :    0;
  EA2   :    0;
  EA3   :    0;
  EA4   :    0;
  EA5   :    0;
  EA6   :    0;
  EA7   :    0;
  EA8   :   79;
  EA9   :   7B;
  EAA   :   7B;
  EAB   :   7B;
  EAC   :   7B;
  EAD   :   7B;
  EAE   :   7B;
  EAF   :   79;
  EB0   :    0;
  EB1   :    0;
  EB2   :    0;
  EB3   :    6;
  EB4   :    6;
  EB5   :    6;
  EB6   :    0;
  EB7   :    0;
  EB8   :   FF;
  EB9   :   FF;
  EBA   :   F9;
  EBB   :   F6;
  EBC   :   F6;
  EBD   :   F6;
  EBE   :   F9;
  EBF   :   FF;
  EC0   :    0;
  EC1   :    0;
  EC2   :    0;
  EC3   :   FF;
  EC4   :   FF;
  EC5   :   FF;
  EC6   :    0;
  EC7   :   FF;
  EC8   :    0;
  EC9   :    0;
  ECA   :    0;
  ECB   :    0;
  ECC   :    0;
  ECD   :    0;
  ECE   :    0;
  ECF   :    0;
  ED0   :    5;
  ED1   :    6;
  ED2   :    3;
  ED3   :    0;
  ED4   :    0;
  ED5   :    0;
  ED6   :    0;
  ED7   :    0;
  ED8   :   34;
  ED9   :   36;
  EDA   :   3B;
  EDB   :   3C;
  EDC   :   3F;
  EDD   :   1F;
  EDE   :    0;
  EDF   :    0;
  EE0   :   FF;
  EE1   :    0;
  EE2   :   FF;
  EE3   :    0;
  EE4   :    0;
  EE5   :    0;
  EE6   :    0;
  EE7   :    0;
  EE8   :    0;
  EE9   :    0;
  EEA   :   FF;
  EEB   :    0;
  EEC   :   FF;
  EED   :   FF;
  EEE   :    0;
  EEF   :    0;
  EF0   :   A0;
  EF1   :   60;
  EF2   :   C0;
  EF3   :    0;
  EF4   :    0;
  EF5   :    0;
  EF6   :    0;
  EF7   :    0;
  EF8   :   2C;
  EF9   :   6C;
  EFA   :   DC;
  EFB   :   3C;
  EFC   :   FC;
  EFD   :   F8;
  EFE   :    0;
  EFF   :    0;
  F00   :   7C;
  F01   :   82;
  F02   :   82;
  F03   :   82;
  F04   :   82;
  F05   :   82;
  F06   :   7C;
  F07   :    0;
  F08   :    0;
  F09   :    0;
  F0A   :    0;
  F0B   :    0;
  F0C   :    0;
  F0D   :    0;
  F0E   :    0;
  F0F   :    0;
  F10   :    0;
  F11   :    0;
  F12   :    0;
  F13   :    0;
  F14   :    0;
  F15   :    0;
  F16   :    0;
  F17   :    0;
  F18   :   7C;
  F19   :   82;
  F1A   :   82;
  F1B   :   82;
  F1C   :   82;
  F1D   :   82;
  F1E   :   7C;
  F1F   :    0;
  F20   :   7C;
  F21   :   82;
  F22   :   82;
  F23   :   82;
  F24   :   82;
  F25   :   82;
  F26   :   7C;
  F27   :    0;
  F28   :   7C;
  F29   :   82;
  F2A   :   82;
  F2B   :   82;
  F2C   :   82;
  F2D   :   82;
  F2E   :   7C;
  F2F   :    0;
  F30   :    3;
  F31   :    3;
  F32   :    0;
  F33   :    0;
  F34   :    0;
  F35   :    0;
  F36   :    0;
  F37   :    0;
  F38   :   78;
  F39   :   78;
  F3A   :   78;
  F3B   :   78;
  F3C   :   3F;
  F3D   :   40;
  F3E   :   3F;
  F3F   :    0;
  F40   :   FF;
  F41   :   FF;
  F42   :    0;
  F43   :    0;
  F44   :    0;
  F45   :    0;
  F46   :    0;
  F47   :    0;
  F48   :    0;
  F49   :    0;
  F4A   :    0;
  F4B   :    0;
  F4C   :   FF;
  F4D   :    0;
  F4E   :   FF;
  F4F   :    0;
  F50   :   FF;
  F51   :   FF;
  F52   :   7F;
  F53   :   1F;
  F54   :    F;
  F55   :    7;
  F56   :    7;
  F57   :    3;
  F58   :   FF;
  F59   :   FF;
  F5A   :   7F;
  F5B   :   9F;
  F5C   :   EF;
  F5D   :   F7;
  F5E   :   F7;
  F5F   :   FB;
  F60   :    0;
  F61   :    0;
  F62   :    0;
  F63   :    0;
  F64   :    0;
  F65   :    0;
  F66   :    0;
  F67   :    0;
  F68   :   F8;
  F69   :   FC;
  F6A   :   FC;
  F6B   :   FC;
  F6C   :   FC;
  F6D   :   FC;
  F6E   :   FC;
  F6F   :   F8;
  F70   :    3;
  F71   :    7;
  F72   :    7;
  F73   :    F;
  F74   :   1F;
  F75   :   7F;
  F76   :   FF;
  F77   :   FF;
  F78   :   FB;
  F79   :   F7;
  F7A   :   F7;
  F7B   :   EF;
  F7C   :   9F;
  F7D   :   7F;
  F7E   :   FF;
  F7F   :   FF;
  F80   :   C0;
  F81   :   C0;
  F82   :    0;
  F83   :    0;
  F84   :    0;
  F85   :    0;
  F86   :    1;
  F87   :    3;
  F88   :   1E;
  F89   :   1E;
  F8A   :   1E;
  F8B   :   1E;
  F8C   :   FC;
  F8D   :    2;
  F8E   :   FD;
  F8F   :    3;
  F90   :    0;
  F91   :    0;
  F92   :    0;
  F93   :    0;
  F94   :    0;
  F95   :    0;
  F96   :    0;
  F97   :    0;
  F98   :   1E;
  F99   :   1F;
  F9A   :   8F;
  F9B   :   8F;
  F9C   :   87;
  F9D   :    7;
  F9E   :    0;
  F9F   :    0;
  FA0   :    0;
  FA1   :    0;
  FA2   :    0;
  FA3   :    1;
  FA4   :    1;
  FA5   :    3;
  FA6   :    7;
  FA7   :   FF;
  FA8   :   79;
  FA9   :   78;
  FAA   :   FC;
  FAB   :   FD;
  FAC   :   FD;
  FAD   :   FB;
  FAE   :    7;
  FAF   :   FF;
  FB0   :    0;
  FB1   :    0;
  FB2   :    0;
  FB3   :    0;
  FB4   :    0;
  FB5   :    0;
  FB6   :    0;
  FB7   :    0;
  FB8   :   FF;
  FB9   :   FF;
  FBA   :   FF;
  FBB   :   7F;
  FBC   :   1F;
  FBD   :    0;
  FBE   :    0;
  FBF   :    0;
  FC0   :   FF;
  FC1   :   FF;
  FC2   :   FF;
  FC3   :   FF;
  FC4   :   FF;
  FC5   :   FF;
  FC6   :   FF;
  FC7   :   FF;
  FC8   :   FF;
  FC9   :   FF;
  FCA   :   FF;
  FCB   :   FF;
  FCC   :   FF;
  FCD   :   FF;
  FCE   :   FF;
  FCF   :   FF;
  FD0   :    0;
  FD1   :    0;
  FD2   :    0;
  FD3   :    0;
  FD4   :    0;
  FD5   :    0;
  FD6   :    0;
  FD7   :    0;
  FD8   :   FF;
  FD9   :   FF;
  FDA   :   FF;
  FDB   :   FF;
  FDC   :   FF;
  FDD   :   FF;
  FDE   :   FF;
  FDF   :   FF;
  FE0   :   FF;
  FE1   :   FF;
  FE2   :   FF;
  FE3   :   FF;
  FE4   :   FF;
  FE5   :   FF;
  FE6   :   FF;
  FE7   :   FF;
  FE8   :    0;
  FE9   :    0;
  FEA   :    0;
  FEB   :    0;
  FEC   :    0;
  FED   :    0;
  FEE   :    0;
  FEF   :    0;
  FF0   :    0;
  FF1   :    0;
  FF2   :    0;
  FF3   :    0;
  FF4   :    0;
  FF5   :    0;
  FF6   :    0;
  FF7   :    0;
  FF8   :    0;
  FF9   :    0;
  FFA   :    0;
  FFB   :    0;
  FFC   :    0;
  FFD   :    0;
  FFE   :    0;
  FFF   :    0;
 1000   :   C7;
 1001   :   B3;
 1002   :   39;
 1003   :   39;
 1004   :   39;
 1005   :   9B;
 1006   :   C7;
 1007   :   FF;
 1008   :    0;
 1009   :    0;
 100A   :    0;
 100B   :    0;
 100C   :    0;
 100D   :    0;
 100E   :    0;
 100F   :    0;
 1010   :   E7;
 1011   :   C7;
 1012   :   E7;
 1013   :   E7;
 1014   :   E7;
 1015   :   E7;
 1016   :   81;
 1017   :   FF;
 1018   :    0;
 1019   :    0;
 101A   :    0;
 101B   :    0;
 101C   :    0;
 101D   :    0;
 101E   :    0;
 101F   :    0;
 1020   :   83;
 1021   :   39;
 1022   :   F1;
 1023   :   C3;
 1024   :   87;
 1025   :   1F;
 1026   :    1;
 1027   :   FF;
 1028   :    0;
 1029   :    0;
 102A   :    0;
 102B   :    0;
 102C   :    0;
 102D   :    0;
 102E   :    0;
 102F   :    0;
 1030   :   81;
 1031   :   F3;
 1032   :   E7;
 1033   :   C3;
 1034   :   F9;
 1035   :   39;
 1036   :   83;
 1037   :   FF;
 1038   :    0;
 1039   :    0;
 103A   :    0;
 103B   :    0;
 103C   :    0;
 103D   :    0;
 103E   :    0;
 103F   :    0;
 1040   :   E3;
 1041   :   C3;
 1042   :   93;
 1043   :   33;
 1044   :    1;
 1045   :   F3;
 1046   :   F3;
 1047   :   FF;
 1048   :    0;
 1049   :    0;
 104A   :    0;
 104B   :    0;
 104C   :    0;
 104D   :    0;
 104E   :    0;
 104F   :    0;
 1050   :    3;
 1051   :   3F;
 1052   :    3;
 1053   :   F9;
 1054   :   F9;
 1055   :   39;
 1056   :   83;
 1057   :   FF;
 1058   :    0;
 1059   :    0;
 105A   :    0;
 105B   :    0;
 105C   :    0;
 105D   :    0;
 105E   :    0;
 105F   :    0;
 1060   :   C3;
 1061   :   9F;
 1062   :   3F;
 1063   :    3;
 1064   :   39;
 1065   :   39;
 1066   :   83;
 1067   :   FF;
 1068   :    0;
 1069   :    0;
 106A   :    0;
 106B   :    0;
 106C   :    0;
 106D   :    0;
 106E   :    0;
 106F   :    0;
 1070   :    1;
 1071   :   39;
 1072   :   F3;
 1073   :   E7;
 1074   :   CF;
 1075   :   CF;
 1076   :   CF;
 1077   :   FF;
 1078   :    0;
 1079   :    0;
 107A   :    0;
 107B   :    0;
 107C   :    0;
 107D   :    0;
 107E   :    0;
 107F   :    0;
 1080   :   83;
 1081   :   39;
 1082   :   39;
 1083   :   83;
 1084   :   39;
 1085   :   39;
 1086   :   83;
 1087   :   FF;
 1088   :    0;
 1089   :    0;
 108A   :    0;
 108B   :    0;
 108C   :    0;
 108D   :    0;
 108E   :    0;
 108F   :    0;
 1090   :   83;
 1091   :   39;
 1092   :   39;
 1093   :   81;
 1094   :   F9;
 1095   :   F3;
 1096   :   87;
 1097   :   FF;
 1098   :    0;
 1099   :    0;
 109A   :    0;
 109B   :    0;
 109C   :    0;
 109D   :    0;
 109E   :    0;
 109F   :    0;
 10A0   :   C7;
 10A1   :   93;
 10A2   :   39;
 10A3   :   39;
 10A4   :    1;
 10A5   :   39;
 10A6   :   39;
 10A7   :   FF;
 10A8   :    0;
 10A9   :    0;
 10AA   :    0;
 10AB   :    0;
 10AC   :    0;
 10AD   :    0;
 10AE   :    0;
 10AF   :    0;
 10B0   :    3;
 10B1   :   39;
 10B2   :   39;
 10B3   :    3;
 10B4   :   39;
 10B5   :   39;
 10B6   :    3;
 10B7   :   FF;
 10B8   :    0;
 10B9   :    0;
 10BA   :    0;
 10BB   :    0;
 10BC   :    0;
 10BD   :    0;
 10BE   :    0;
 10BF   :    0;
 10C0   :   C3;
 10C1   :   99;
 10C2   :   3F;
 10C3   :   3F;
 10C4   :   3F;
 10C5   :   99;
 10C6   :   C3;
 10C7   :   FF;
 10C8   :    0;
 10C9   :    0;
 10CA   :    0;
 10CB   :    0;
 10CC   :    0;
 10CD   :    0;
 10CE   :    0;
 10CF   :    0;
 10D0   :    7;
 10D1   :   33;
 10D2   :   39;
 10D3   :   39;
 10D4   :   39;
 10D5   :   33;
 10D6   :    7;
 10D7   :   FF;
 10D8   :    0;
 10D9   :    0;
 10DA   :    0;
 10DB   :    0;
 10DC   :    0;
 10DD   :    0;
 10DE   :    0;
 10DF   :    0;
 10E0   :    1;
 10E1   :   3F;
 10E2   :   3F;
 10E3   :    3;
 10E4   :   3F;
 10E5   :   3F;
 10E6   :    1;
 10E7   :   FF;
 10E8   :    0;
 10E9   :    0;
 10EA   :    0;
 10EB   :    0;
 10EC   :    0;
 10ED   :    0;
 10EE   :    0;
 10EF   :    0;
 10F0   :    1;
 10F1   :   3F;
 10F2   :   3F;
 10F3   :    3;
 10F4   :   3F;
 10F5   :   3F;
 10F6   :   3F;
 10F7   :   FF;
 10F8   :    0;
 10F9   :    0;
 10FA   :    0;
 10FB   :    0;
 10FC   :    0;
 10FD   :    0;
 10FE   :    0;
 10FF   :    0;
 1100   :   C1;
 1101   :   9F;
 1102   :   3F;
 1103   :   31;
 1104   :   39;
 1105   :   99;
 1106   :   C1;
 1107   :   FF;
 1108   :    0;
 1109   :    0;
 110A   :    0;
 110B   :    0;
 110C   :    0;
 110D   :    0;
 110E   :    0;
 110F   :    0;
 1110   :   39;
 1111   :   39;
 1112   :   39;
 1113   :    1;
 1114   :   39;
 1115   :   39;
 1116   :   39;
 1117   :   FF;
 1118   :    0;
 1119   :    0;
 111A   :    0;
 111B   :    0;
 111C   :    0;
 111D   :    0;
 111E   :    0;
 111F   :    0;
 1120   :   81;
 1121   :   E7;
 1122   :   E7;
 1123   :   E7;
 1124   :   E7;
 1125   :   E7;
 1126   :   81;
 1127   :   FF;
 1128   :    0;
 1129   :    0;
 112A   :    0;
 112B   :    0;
 112C   :    0;
 112D   :    0;
 112E   :    0;
 112F   :    0;
 1130   :   E1;
 1131   :   F9;
 1132   :   F9;
 1133   :   F9;
 1134   :   39;
 1135   :   39;
 1136   :   83;
 1137   :   FF;
 1138   :    0;
 1139   :    0;
 113A   :    0;
 113B   :    0;
 113C   :    0;
 113D   :    0;
 113E   :    0;
 113F   :    0;
 1140   :   39;
 1141   :   33;
 1142   :   27;
 1143   :    F;
 1144   :    7;
 1145   :   23;
 1146   :   31;
 1147   :   FF;
 1148   :    0;
 1149   :    0;
 114A   :    0;
 114B   :    0;
 114C   :    0;
 114D   :    0;
 114E   :    0;
 114F   :    0;
 1150   :   9F;
 1151   :   9F;
 1152   :   9F;
 1153   :   9F;
 1154   :   9F;
 1155   :   9F;
 1156   :   81;
 1157   :   FF;
 1158   :    0;
 1159   :    0;
 115A   :    0;
 115B   :    0;
 115C   :    0;
 115D   :    0;
 115E   :    0;
 115F   :    0;
 1160   :   39;
 1161   :   11;
 1162   :    1;
 1163   :    1;
 1164   :   29;
 1165   :   39;
 1166   :   39;
 1167   :   FF;
 1168   :    0;
 1169   :    0;
 116A   :    0;
 116B   :    0;
 116C   :    0;
 116D   :    0;
 116E   :    0;
 116F   :    0;
 1170   :   39;
 1171   :   19;
 1172   :    9;
 1173   :    1;
 1174   :   21;
 1175   :   31;
 1176   :   39;
 1177   :   FF;
 1178   :    0;
 1179   :    0;
 117A   :    0;
 117B   :    0;
 117C   :    0;
 117D   :    0;
 117E   :    0;
 117F   :    0;
 1180   :   83;
 1181   :   39;
 1182   :   39;
 1183   :   39;
 1184   :   39;
 1185   :   39;
 1186   :   83;
 1187   :   FF;
 1188   :    0;
 1189   :    0;
 118A   :    0;
 118B   :    0;
 118C   :    0;
 118D   :    0;
 118E   :    0;
 118F   :    0;
 1190   :    3;
 1191   :   39;
 1192   :   39;
 1193   :   39;
 1194   :    3;
 1195   :   3F;
 1196   :   3F;
 1197   :   FF;
 1198   :    0;
 1199   :    0;
 119A   :    0;
 119B   :    0;
 119C   :    0;
 119D   :    0;
 119E   :    0;
 119F   :    0;
 11A0   :   83;
 11A1   :   39;
 11A2   :   39;
 11A3   :   39;
 11A4   :   21;
 11A5   :   33;
 11A6   :   85;
 11A7   :   FF;
 11A8   :    0;
 11A9   :    0;
 11AA   :    0;
 11AB   :    0;
 11AC   :    0;
 11AD   :    0;
 11AE   :    0;
 11AF   :    0;
 11B0   :    3;
 11B1   :   39;
 11B2   :   39;
 11B3   :   31;
 11B4   :    7;
 11B5   :   23;
 11B6   :   31;
 11B7   :   FF;
 11B8   :    0;
 11B9   :    0;
 11BA   :    0;
 11BB   :    0;
 11BC   :    0;
 11BD   :    0;
 11BE   :    0;
 11BF   :    0;
 11C0   :   87;
 11C1   :   33;
 11C2   :   3F;
 11C3   :   83;
 11C4   :   F9;
 11C5   :   39;
 11C6   :   83;
 11C7   :   FF;
 11C8   :    0;
 11C9   :    0;
 11CA   :    0;
 11CB   :    0;
 11CC   :    0;
 11CD   :    0;
 11CE   :    0;
 11CF   :    0;
 11D0   :   81;
 11D1   :   E7;
 11D2   :   E7;
 11D3   :   E7;
 11D4   :   E7;
 11D5   :   E7;
 11D6   :   E7;
 11D7   :   FF;
 11D8   :    0;
 11D9   :    0;
 11DA   :    0;
 11DB   :    0;
 11DC   :    0;
 11DD   :    0;
 11DE   :    0;
 11DF   :    0;
 11E0   :   39;
 11E1   :   39;
 11E2   :   39;
 11E3   :   39;
 11E4   :   39;
 11E5   :   39;
 11E6   :   83;
 11E7   :   FF;
 11E8   :    0;
 11E9   :    0;
 11EA   :    0;
 11EB   :    0;
 11EC   :    0;
 11ED   :    0;
 11EE   :    0;
 11EF   :    0;
 11F0   :   39;
 11F1   :   39;
 11F2   :   39;
 11F3   :   11;
 11F4   :   83;
 11F5   :   C7;
 11F6   :   EF;
 11F7   :   FF;
 11F8   :    0;
 11F9   :    0;
 11FA   :    0;
 11FB   :    0;
 11FC   :    0;
 11FD   :    0;
 11FE   :    0;
 11FF   :    0;
 1200   :   39;
 1201   :   39;
 1202   :   29;
 1203   :    1;
 1204   :    1;
 1205   :   11;
 1206   :   39;
 1207   :   FF;
 1208   :    0;
 1209   :    0;
 120A   :    0;
 120B   :    0;
 120C   :    0;
 120D   :    0;
 120E   :    0;
 120F   :    0;
 1210   :   39;
 1211   :   11;
 1212   :   83;
 1213   :   C7;
 1214   :   83;
 1215   :   11;
 1216   :   39;
 1217   :   FF;
 1218   :    0;
 1219   :    0;
 121A   :    0;
 121B   :    0;
 121C   :    0;
 121D   :    0;
 121E   :    0;
 121F   :    0;
 1220   :   99;
 1221   :   99;
 1222   :   99;
 1223   :   C3;
 1224   :   E7;
 1225   :   E7;
 1226   :   E7;
 1227   :   FF;
 1228   :    0;
 1229   :    0;
 122A   :    0;
 122B   :    0;
 122C   :    0;
 122D   :    0;
 122E   :    0;
 122F   :    0;
 1230   :    1;
 1231   :   F1;
 1232   :   E3;
 1233   :   C7;
 1234   :   8F;
 1235   :   1F;
 1236   :    1;
 1237   :   FF;
 1238   :    0;
 1239   :    0;
 123A   :    0;
 123B   :    0;
 123C   :    0;
 123D   :    0;
 123E   :    0;
 123F   :    0;
 1240   :   FF;
 1241   :   FF;
 1242   :   FF;
 1243   :   C3;
 1244   :   C3;
 1245   :   FF;
 1246   :   FF;
 1247   :   FF;
 1248   :    0;
 1249   :    0;
 124A   :    0;
 124B   :    0;
 124C   :    0;
 124D   :    0;
 124E   :    0;
 124F   :    0;
 1250   :   FF;
 1251   :   FF;
 1252   :   FF;
 1253   :   CF;
 1254   :   CF;
 1255   :   EF;
 1256   :   DF;
 1257   :   FF;
 1258   :    0;
 1259   :    0;
 125A   :    0;
 125B   :    0;
 125C   :    0;
 125D   :    0;
 125E   :    0;
 125F   :    0;
 1260   :    0;
 1261   :    0;
 1262   :    0;
 1263   :    0;
 1264   :    0;
 1265   :    0;
 1266   :    0;
 1267   :    0;
 1268   :    0;
 1269   :    0;
 126A   :    0;
 126B   :    0;
 126C   :    0;
 126D   :    0;
 126E   :    0;
 126F   :    0;
 1270   :    0;
 1271   :    0;
 1272   :    F;
 1273   :    0;
 1274   :    0;
 1275   :    0;
 1276   :    0;
 1277   :   8F;
 1278   :    0;
 1279   :    0;
 127A   :    0;
 127B   :   2F;
 127C   :   2F;
 127D   :   A0;
 127E   :   20;
 127F   :   20;
 1280   :   FF;
 1281   :   FF;
 1282   :   FF;
 1283   :    1;
 1284   :    1;
 1285   :    0;
 1286   :    0;
 1287   :   F1;
 1288   :   FF;
 1289   :   FF;
 128A   :    F;
 128B   :   F5;
 128C   :   F5;
 128D   :    5;
 128E   :    4;
 128F   :    4;
 1290   :    0;
 1291   :    0;
 1292   :    4;
 1293   :    0;
 1294   :    0;
 1295   :    0;
 1296   :    0;
 1297   :    0;
 1298   :    0;
 1299   :   6C;
 129A   :   FA;
 129B   :   FE;
 129C   :   7C;
 129D   :   38;
 129E   :   10;
 129F   :    0;
 12A0   :   FF;
 12A1   :   FF;
 12A2   :   FF;
 12A3   :   FF;
 12A4   :   FF;
 12A5   :   E7;
 12A6   :   E7;
 12A7   :   FF;
 12A8   :    0;
 12A9   :    0;
 12AA   :    0;
 12AB   :    0;
 12AC   :    0;
 12AD   :    0;
 12AE   :    0;
 12AF   :    0;
 12B0   :   3C;
 12B1   :   42;
 12B2   :   99;
 12B3   :   A1;
 12B4   :   A1;
 12B5   :   99;
 12B6   :   42;
 12B7   :   3C;
 12B8   :    0;
 12B9   :    0;
 12BA   :    0;
 12BB   :    0;
 12BC   :    0;
 12BD   :    0;
 12BE   :    0;
 12BF   :    0;
 12C0   :    0;
 12C1   :    0;
 12C2   :    0;
 12C3   :    0;
 12C4   :    0;
 12C5   :    0;
 12C6   :    0;
 12C7   :    7;
 12C8   :    0;
 12C9   :    0;
 12CA   :    0;
 12CB   :    0;
 12CC   :    0;
 12CD   :   1F;
 12CE   :   10;
 12CF   :   10;
 12D0   :   FF;
 12D1   :   FF;
 12D2   :   FF;
 12D3   :   D0;
 12D4   :   80;
 12D5   :    0;
 12D6   :    0;
 12D7   :   8F;
 12D8   :   FF;
 12D9   :   FF;
 12DA   :   F0;
 12DB   :   FF;
 12DC   :   AF;
 12DD   :   A0;
 12DE   :   20;
 12DF   :   20;
 12E0   :    0;
 12E1   :    0;
 12E2   :   F0;
 12E3   :    0;
 12E4   :    0;
 12E5   :    0;
 12E6   :    0;
 12E7   :   F1;
 12E8   :    0;
 12E9   :    0;
 12EA   :    0;
 12EB   :   F4;
 12EC   :   F4;
 12ED   :    5;
 12EE   :    4;
 12EF   :    4;
 12F0   :   FF;
 12F1   :   FF;
 12F2   :   FF;
 12F3   :   FF;
 12F4   :   FF;
 12F5   :    7;
 12F6   :    7;
 12F7   :   E7;
 12F8   :   FF;
 12F9   :   FF;
 12FA   :   FF;
 12FB   :   FF;
 12FC   :   FF;
 12FD   :   FF;
 12FE   :    F;
 12FF   :    F;
 1300   :   FC;
 1301   :   F0;
 1302   :   E0;
 1303   :   C3;
 1304   :   8F;
 1305   :   8F;
 1306   :   1E;
 1307   :   1C;
 1308   :   FC;
 1309   :   F3;
 130A   :   EC;
 130B   :   D1;
 130C   :   A3;
 130D   :   A7;
 130E   :   5E;
 130F   :   4C;
 1310   :    0;
 1311   :    0;
 1312   :    0;
 1313   :   FF;
 1314   :   FF;
 1315   :   FF;
 1316   :    0;
 1317   :    0;
 1318   :    0;
 1319   :   FF;
 131A   :    0;
 131B   :    0;
 131C   :   FF;
 131D   :   FF;
 131E   :    0;
 131F   :   FF;
 1320   :    0;
 1321   :    0;
 1322   :    0;
 1323   :   C0;
 1324   :   F0;
 1325   :   F0;
 1326   :   78;
 1327   :   38;
 1328   :    0;
 1329   :   C0;
 132A   :   30;
 132B   :   88;
 132C   :   C4;
 132D   :   E4;
 132E   :   7A;
 132F   :   32;
 1330   :   1C;
 1331   :   1C;
 1332   :   1C;
 1333   :   1C;
 1334   :   1C;
 1335   :   1C;
 1336   :   1C;
 1337   :   1C;
 1338   :   4D;
 1339   :   4D;
 133A   :   4D;
 133B   :   4D;
 133C   :   4D;
 133D   :   4D;
 133E   :   4D;
 133F   :   4D;
 1340   :   38;
 1341   :   38;
 1342   :   38;
 1343   :   38;
 1344   :   38;
 1345   :   38;
 1346   :   38;
 1347   :   38;
 1348   :   B2;
 1349   :   B2;
 134A   :   B2;
 134B   :   B2;
 134C   :   B2;
[...]
 7B1F   :   C4;
 7B20   :   FC;
 7B21   :   FE;
 7B22   :   FE;
 7B23   :   FF;
 7B24   :   FF;
 7B25   :   FF;
 7B26   :   FF;
 7B27   :   FF;
 7B28   :    4;
 7B29   :    2;
 7B2A   :    2;
 7B2B   :    1;
 7B2C   :   80;
 7B2D   :   C0;
 7B2E   :   20;
 7B2F   :   30;
 7B30   :   10;
 7B31   :   28;
 7B32   :   44;
 7B33   :   82;
 7B34   :   C1;
 7B35   :   C9;
 7B36   :   F7;
 7B37   :   C9;
 7B38   :   10;
 7B39   :   38;
 7B3A   :   7C;
 7B3B   :   FE;
 7B3C   :   7F;
 7B3D   :   7F;
 7B3E   :   3F;
 7B3F   :   FF;
 7B40   :   80;
 7B41   :   BC;
 7B42   :   60;
 7B43   :   18;
 7B44   :    4;
 7B45   :    F;
 7B46   :   1F;
 7B47   :   1F;
 7B48   :   FF;
 7B49   :   FF;
 7B4A   :   7F;
 7B4B   :   1F;
 7B4C   :    7;
 7B4D   :    F;
 7B4E   :   11;
 7B4F   :   16;
 7B50   :   E0;
 7B51   :   11;
 7B52   :   6E;
 7B53   :    0;
 7B54   :   10;
 7B55   :   F0;
 7B56   :   8C;
 7B57   :   FC;
 7B58   :   FF;
 7B59   :   FF;
 7B5A   :   FF;
 7B5B   :   FF;
 7B5C   :   FF;
 7B5D   :   FF;
 7B5E   :   FF;
 7B5F   :   FF;
 7B60   :   D8;
 7B61   :   84;
 7B62   :    2;
 7B63   :   41;
 7B64   :   21;
 7B65   :   20;
 7B66   :   1C;
 7B67   :   1E;
 7B68   :   F8;
 7B69   :   FC;
 7B6A   :   FE;
 7B6B   :   FF;
 7B6C   :   FF;
 7B6D   :   FF;
 7B6E   :   FF;
 7B6F   :   F3;
 7B70   :    0;
 7B71   :    0;
 7B72   :   40;
 7B73   :   F0;
 7B74   :   F8;
 7B75   :   FC;
 7B76   :   FC;
 7B77   :   FE;
 7B78   :    0;
 7B79   :    0;
 7B7A   :   40;
 7B7B   :   B0;
 7B7C   :   C8;
 7B7D   :   C4;
 7B7E   :   E4;
 7B7F   :   A2;
 7B80   :    0;
 7B81   :    0;
 7B82   :    0;
 7B83   :    0;
 7B84   :    0;
 7B85   :    0;
 7B86   :    0;
 7B87   :    0;
 7B88   :    0;
 7B89   :    0;
 7B8A   :    0;
 7B8B   :    0;
 7B8C   :    0;
 7B8D   :    0;
 7B8E   :    0;
 7B8F   :    0;
 7B90   :    0;
 7B91   :    0;
 7B92   :    0;
 7B93   :    0;
 7B94   :    0;
 7B95   :    0;
 7B96   :    0;
 7B97   :    0;
 7B98   :    0;
 7B99   :    0;
 7B9A   :    0;
 7B9B   :    0;
 7B9C   :    0;
 7B9D   :    0;
 7B9E   :    0;
 7B9F   :    0;
 7BA0   :    0;
 7BA1   :    0;
 7BA2   :    0;
 7BA3   :    0;
 7BA4   :    0;
 7BA5   :    0;
 7BA6   :    0;
 7BA7   :    0;
 7BA8   :    0;
 7BA9   :    0;
 7BAA   :    0;
 7BAB   :    0;
 7BAC   :    0;
 7BAD   :    0;
 7BAE   :    0;
 7BAF   :    0;
 7BB0   :    0;
 7BB1   :    0;
 7BB2   :    0;
 7BB3   :    0;
 7BB4   :    0;
 7BB5   :    0;
 7BB6   :    0;
 7BB7   :    0;
 7BB8   :    0;
 7BB9   :    0;
 7BBA   :    0;
 7BBB   :    0;
 7BBC   :    0;
 7BBD   :    0;
 7BBE   :    0;
 7BBF   :    0;
 7BC0   :    0;
 7BC1   :    0;
 7BC2   :    0;
 7BC3   :    0;
 7BC4   :    0;
 7BC5   :    0;
 7BC6   :    0;
 7BC7   :    0;
 7BC8   :    0;
 7BC9   :    0;
 7BCA   :    0;
 7BCB   :    0;
 7BCC   :    0;
 7BCD   :    0;
 7BCE   :    0;
 7BCF   :    0;
 7BD0   :    0;
 7BD1   :    0;
 7BD2   :    0;
 7BD3   :    0;
 7BD4   :    0;
 7BD5   :    0;
 7BD6   :    0;
 7BD7   :    0;
 7BD8   :    0;
 7BD9   :    0;
 7BDA   :    0;
 7BDB   :    0;
 7BDC   :    0;
 7BDD   :    0;
 7BDE   :    0;
 7BDF   :    0;
 7BE0   :    0;
 7BE1   :    0;
 7BE2   :    0;
 7BE3   :    0;
 7BE4   :    0;
 7BE5   :    0;
 7BE6   :    0;
 7BE7   :    0;
 7BE8   :    0;
 7BE9   :    0;
 7BEA   :    0;
 7BEB   :    0;
 7BEC   :    0;
 7BED   :    0;
 7BEE   :    0;
 7BEF   :    0;
 7BF0   :    0;
 7BF1   :    0;
 7BF2   :    0;
 7BF3   :    0;
 7BF4   :    0;
 7BF5   :    0;
 7BF6   :    0;
 7BF7   :    0;
 7BF8   :    0;
 7BF9   :    0;
 7BFA   :    0;
 7BFB   :    0;
 7BFC   :    0;
 7BFD   :    0;
 7BFE   :    0;
 7BFF   :    0;
 7C00   :    0;
 7C01   :    0;
 7C02   :    0;
 7C03   :    0;
 7C04   :    0;
 7C05   :    0;
 7C06   :    0;
 7C07   :    0;
 7C08   :    0;
 7C09   :    0;
 7C0A   :    0;
 7C0B   :    0;
 7C0C   :    0;
 7C0D   :    0;
 7C0E   :    0;
 7C0F   :    0;
 7C10   :   5F;
 7C11   :   5F;
 7C12   :   27;
 7C13   :   18;
 7C14   :    7;
 7C15   :    0;
 7C16   :    0;
 7C17   :    0;
 7C18   :   62;
 7C19   :   61;
 7C1A   :   39;
 7C1B   :   1F;
 7C1C   :    7;
 7C1D   :    0;
 7C1E   :    0;
 7C1F   :    0;
 7C20   :   FF;
 7C21   :   FF;
 7C22   :   FF;
 7C23   :   FC;
 7C24   :   F0;
 7C25   :    0;
 7C26   :    0;
 7C27   :    0;
 7C28   :    9;
 7C29   :    A;
 7C2A   :    B;
 7C2B   :   FC;
 7C2C   :   F0;
 7C2D   :    0;
 7C2E   :    0;
 7C2F   :    0;
 7C30   :   D6;
 7C31   :   A0;
 7C32   :    0;
 7C33   :    0;
 7C34   :    0;
 7C35   :    0;
 7C36   :    0;
 7C37   :    0;
 7C38   :   76;
 7C39   :   A0;
 7C3A   :    0;
 7C3B   :    0;
 7C3C   :    0;
 7C3D   :    0;
 7C3E   :    0;
 7C3F   :    0;
 7C40   :   3F;
 7C41   :   3F;
 7C42   :   7F;
 7C43   :   7F;
 7C44   :   7F;
 7C45   :   7F;
 7C46   :   3F;
 7C47   :   3F;
 7C48   :   24;
 7C49   :   20;
 7C4A   :   40;
 7C4B   :   41;
 7C4C   :   41;
 7C4D   :   40;
 7C4E   :   20;
 7C4F   :   20;
 7C50   :   FF;
 7C51   :   FE;
 7C52   :   FE;
 7C53   :   F8;
 7C54   :   FF;
 7C55   :   FF;
 7C56   :   FF;
 7C57   :   FF;
 7C58   :   33;
 7C59   :   23;
 7C5A   :   E7;
 7C5B   :    F;
 7C5C   :    7;
 7C5D   :    0;
 7C5E   :    0;
 7C5F   :    0;
 7C60   :   1F;
 7C61   :   1F;
 7C62   :    F;
 7C63   :    7;
 7C64   :   37;
 7C65   :   BF;
 7C66   :   FF;
 7C67   :   FF;
 7C68   :   F1;
 7C69   :   F1;
 7C6A   :   F9;
 7C6B   :   FC;
 7C6C   :   FD;
 7C6D   :   E8;
 7C6E   :   40;
 7C6F   :    0;
 7C70   :   FE;
 7C71   :   FE;
 7C72   :   FF;
 7C73   :   FF;
 7C74   :   FF;
 7C75   :   FF;
 7C76   :   FF;
 7C77   :   FF;
 7C78   :   12;
 7C79   :    2;
 7C7A   :    1;
 7C7B   :   81;
 7C7C   :   81;
 7C7D   :   C1;
 7C7E   :    1;
 7C7F   :    1;
 7C80   :    0;
 7C81   :    0;
 7C82   :    0;
 7C83   :    0;
 7C84   :    0;
 7C85   :    0;
 7C86   :    0;
 7C87   :    0;
 7C88   :    0;
 7C89   :    0;
 7C8A   :    0;
 7C8B   :    0;
 7C8C   :    0;
 7C8D   :    0;
 7C8E   :    0;
 7C8F   :    0;
 7C90   :    0;
 7C91   :    0;
 7C92   :    0;
 7C93   :    0;
 7C94   :    0;
 7C95   :    0;
 7C96   :    0;
 7C97   :    0;
 7C98   :    0;
 7C99   :    0;
 7C9A   :    0;
 7C9B   :    0;
 7C9C   :    0;
 7C9D   :    0;
 7C9E   :    0;
 7C9F   :    0;
 7CA0   :    0;
 7CA1   :    0;
 7CA2   :    0;
 7CA3   :    0;
 7CA4   :    0;
 7CA5   :    0;
 7CA6   :    0;
 7CA7   :    0;
 7CA8   :    0;
 7CA9   :    0;
 7CAA   :    0;
 7CAB   :    0;
 7CAC   :    0;
 7CAD   :    0;
 7CAE   :    0;
 7CAF   :    0;
 7CB0   :    0;
 7CB1   :    0;
 7CB2   :    0;
 7CB3   :    0;
 7CB4   :    0;
 7CB5   :    0;
 7CB6   :    0;
 7CB7   :    0;
 7CB8   :    0;
 7CB9   :    0;
 7CBA   :    0;
 7CBB   :    0;
 7CBC   :    0;
 7CBD   :    0;
 7CBE   :    0;
 7CBF   :    0;
 7CC0   :    0;
 7CC1   :    0;
 7CC2   :    0;
 7CC3   :    0;
 7CC4   :    0;
 7CC5   :    0;
 7CC6   :    0;
 7CC7   :    0;
 7CC8   :    0;
 7CC9   :    0;
 7CCA   :    0;
 7CCB   :    0;
 7CCC   :    0;
 7CCD   :    0;
 7CCE   :    0;
 7CCF   :    0;
 7CD0   :    0;
 7CD1   :    0;
 7CD2   :    0;
 7CD3   :    0;
 7CD4   :    0;
 7CD5   :    0;
 7CD6   :    0;
 7CD7   :    0;
 7CD8   :    0;
 7CD9   :    0;
 7CDA   :    0;
 7CDB   :    0;
 7CDC   :    0;
 7CDD   :    0;
 7CDE   :    0;
 7CDF   :    0;
 7CE0   :    0;
 7CE1   :    0;
 7CE2   :    0;
 7CE3   :    0;
 7CE4   :    0;
 7CE5   :    0;
 7CE6   :    0;
 7CE7   :    0;
 7CE8   :    0;
 7CE9   :    0;
 7CEA   :    0;
 7CEB   :    0;
 7CEC   :    0;
 7CED   :    0;
 7CEE   :    0;
 7CEF   :    0;
 7CF0   :    0;
 7CF1   :    0;
 7CF2   :    0;
 7CF3   :    0;
 7CF4   :    0;
 7CF5   :    0;
 7CF6   :    0;
 7CF7   :    0;
 7CF8   :    0;
 7CF9   :    0;
 7CFA   :    0;
 7CFB   :    0;
 7CFC   :    0;
 7CFD   :    0;
 7CFE   :    0;
 7CFF   :    0;
 7D00   :    0;
 7D01   :    0;
 7D02   :    0;
 7D03   :    0;
 7D04   :    0;
 7D05   :    0;
 7D06   :    0;
 7D07   :    0;
 7D08   :    0;
 7D09   :    0;
 7D0A   :    0;
 7D0B   :    0;
 7D0C   :    0;
 7D0D   :    0;
 7D0E   :    0;
 7D0F   :    0;
 7D10   :    0;
 7D11   :    0;
 7D12   :    0;
 7D13   :    0;
 7D14   :    0;
 7D15   :    0;
 7D16   :    0;
 7D17   :    0;
 7D18   :    0;
 7D19   :    0;
 7D1A   :    0;
 7D1B   :    0;
 7D1C   :    0;
 7D1D   :    0;
 7D1E   :    0;
 7D1F   :    0;
 7D20   :    0;
 7D21   :    0;
 7D22   :    0;
 7D23   :    0;
 7D24   :    0;
 7D25   :    0;
 7D26   :    0;
 7D27   :    0;
 7D28   :    0;
 7D29   :    0;
 7D2A   :    0;
 7D2B   :    0;
 7D2C   :    0;
 7D2D   :    0;
 7D2E   :    0;
 7D2F   :    0;
 7D30   :    0;
 7D31   :    0;
 7D32   :    0;
 7D33   :    0;
 7D34   :    0;
 7D35   :    0;
 7D36   :    0;
 7D37   :    0;
 7D38   :    0;
 7D39   :    0;
 7D3A   :    0;
 7D3B   :    0;
 7D3C   :    0;
 7D3D   :    0;
 7D3E   :    0;
 7D3F   :    0;
 7D40   :   3F;
 7D41   :   1F;
 7D42   :   1F;
 7D43   :    F;
 7D44   :    7;
 7D45   :    1;
 7D46   :    0;
 7D47   :    0;
 7D48   :   20;
 7D49   :   10;
 7D4A   :   10;
 7D4B   :    8;
 7D4C   :    6;
 7D4D   :    1;
 7D4E   :    0;
 7D4F   :    0;
 7D50   :   FF;
 7D51   :   FF;
 7D52   :   FF;
 7D53   :   FF;
 7D54   :   FF;
 7D55   :   FF;
 7D56   :   7F;
 7D57   :    F;
 7D58   :    0;
 7D59   :    0;
 7D5A   :    0;
 7D5B   :    0;
 7D5C   :    0;
 7D5D   :   80;
 7D5E   :   70;
 7D5F   :    F;
 7D60   :   FF;
 7D61   :   FF;
 7D62   :   FF;
 7D63   :   FF;
 7D64   :   FF;
 7D65   :   FF;
 7D66   :   FF;
 7D67   :   F8;
 7D68   :    0;
 7D69   :    0;
 7D6A   :    0;
 7D6B   :    0;
 7D6C   :    0;
 7D6D   :    0;
 7D6E   :    7;
 7D6F   :   F8;
 7D70   :   FE;
 7D71   :   FE;
 7D72   :   FC;
 7D73   :   F8;
 7D74   :   F0;
 7D75   :   C0;
 7D76   :    0;
 7D77   :    0;
 7D78   :    2;
 7D79   :    2;
 7D7A   :    4;
 7D7B   :    8;
 7D7C   :   30;
 7D7D   :   C0;
 7D7E   :    0;
 7D7F   :    0;
 7D80   :    0;
 7D81   :    0;
 7D82   :    0;
 7D83   :    0;
 7D84   :    0;
 7D85   :    0;
 7D86   :    0;
 7D87   :    0;
 7D88   :    0;
 7D89   :    0;
 7D8A   :    0;
 7D8B   :    0;
 7D8C   :    0;
 7D8D   :    0;
 7D8E   :    0;
 7D8F   :    0;
 7D90   :    0;
 7D91   :    0;
 7D92   :    0;
 7D93   :    0;
 7D94   :    0;
 7D95   :    0;
 7D96   :    0;
 7D97   :    0;
 7D98   :    0;
 7D99   :    0;
 7D9A   :    0;
 7D9B   :    0;
 7D9C   :    0;
 7D9D   :    0;
 7D9E   :    0;
 7D9F   :    0;
 7DA0   :    0;
 7DA1   :    0;
 7DA2   :    0;
 7DA3   :    0;
 7DA4   :    0;
 7DA5   :    0;
 7DA6   :    0;
 7DA7   :    0;
 7DA8   :    0;
 7DA9   :    0;
 7DAA   :    0;
 7DAB   :    0;
 7DAC   :    0;
 7DAD   :    0;
 7DAE   :    0;
 7DAF   :    0;
 7DB0   :    0;
 7DB1   :    0;
 7DB2   :    0;
 7DB3   :    0;
 7DB4   :    0;
 7DB5   :    0;
 7DB6   :    0;
 7DB7   :    0;
 7DB8   :    0;
 7DB9   :    0;
 7DBA   :    0;
 7DBB   :    0;
 7DBC   :    0;
 7DBD   :    0;
 7DBE   :    0;
 7DBF   :    0;
 7DC0   :    0;
 7DC1   :    0;
 7DC2   :    0;
 7DC3   :    0;
 7DC4   :    0;
 7DC5   :    0;
 7DC6   :    0;
 7DC7   :    0;
 7DC8   :    0;
 7DC9   :    0;
 7DCA   :    0;
 7DCB   :    0;
 7DCC   :    0;
 7DCD   :    0;
 7DCE   :    0;
 7DCF   :    0;
 7DD0   :    0;
 7DD1   :    0;
 7DD2   :    0;
 7DD3   :    0;
 7DD4   :    0;
 7DD5   :    0;
 7DD6   :    0;
 7DD7   :    0;
 7DD8   :    0;
 7DD9   :    0;
 7DDA   :    0;
 7DDB   :    0;
 7DDC   :    0;
 7DDD   :    0;
 7DDE   :    0;
 7DDF   :    0;
 7DE0   :    0;
 7DE1   :    0;
 7DE2   :    0;
 7DE3   :    0;
 7DE4   :    0;
 7DE5   :    0;
 7DE6   :    0;
 7DE7   :    0;
 7DE8   :    0;
 7DE9   :    0;
 7DEA   :    0;
 7DEB   :    0;
 7DEC   :    0;
 7DED   :    0;
 7DEE   :    0;
 7DEF   :    0;
 7DF0   :    0;
 7DF1   :    0;
 7DF2   :    0;
 7DF3   :    0;
 7DF4   :    0;
 7DF5   :    0;
 7DF6   :    0;
 7DF7   :    0;
 7DF8   :    0;
 7DF9   :    0;
 7DFA   :    0;
 7DFB   :    0;
 7DFC   :    0;
 7DFD   :    0;
 7DFE   :    0;
 7DFF   :    0;
 7E00   :    0;
 7E01   :    0;
 7E02   :    0;
 7E03   :    0;
 7E04   :    0;
 7E05   :    0;
 7E06   :    0;
 7E07   :    0;
 7E08   :    0;
 7E09   :    0;
 7E0A   :    0;
 7E0B   :    0;
 7E0C   :    0;
 7E0D   :    0;
 7E0E   :    0;
 7E0F   :    0;
 7E10   :    0;
 7E11   :    0;
 7E12   :    0;
 7E13   :    0;
 7E14   :    0;
 7E15   :    0;
 7E16   :    0;
 7E17   :    0;
 7E18   :    0;
 7E19   :    0;
 7E1A   :    0;
 7E1B   :    0;
 7E1C   :    0;
 7E1D   :    0;
 7E1E   :    0;
 7E1F   :    0;
 7E20   :    0;
 7E21   :    0;
 7E22   :    0;
 7E23   :    0;
 7E24   :    0;
 7E25   :    0;
 7E26   :    0;
 7E27   :    0;
 7E28   :    0;
 7E29   :    0;
 7E2A   :    0;
 7E2B   :    0;
 7E2C   :    0;
 7E2D   :    0;
 7E2E   :    0;
 7E2F   :    0;
 7E30   :    0;
 7E31   :    0;
 7E32   :    0;
 7E33   :    0;
 7E34   :    0;
 7E35   :    0;
 7E36   :    0;
 7E37   :    0;
 7E38   :    0;
 7E39   :    0;
 7E3A   :    0;
 7E3B   :    0;
 7E3C   :    0;
 7E3D   :    0;
 7E3E   :    0;
 7E3F   :    0;
 7E40   :    0;
 7E41   :    0;
 7E42   :    0;
 7E43   :    0;
 7E44   :    0;
 7E45   :    0;
 7E46   :    0;
 7E47   :    0;
 7E48   :    0;
 7E49   :    0;
 7E4A   :    0;
 7E4B   :    0;
 7E4C   :    0;
 7E4D   :    0;
 7E4E   :    0;
 7E4F   :    0;
 7E50   :    0;
 7E51   :    0;
 7E52   :    0;
 7E53   :    0;
 7E54   :    0;
 7E55   :    0;
 7E56   :    0;
 7E57   :    0;
 7E58   :    0;
 7E59   :    0;
 7E5A   :    0;
 7E5B   :    0;
 7E5C   :    0;
 7E5D   :    0;
 7E5E   :    0;
 7E5F   :    0;
 7E60   :    0;
 7E61   :    0;
 7E62   :    0;
 7E63   :    0;
 7E64   :    0;
 7E65   :    0;
 7E66   :    0;
 7E67   :    0;
 7E68   :    0;
 7E69   :    0;
 7E6A   :    0;
 7E6B   :    0;
 7E6C   :    0;
 7E6D   :    0;
 7E6E   :    0;
 7E6F   :    0;
 7E70   :    0;
 7E71   :    0;
 7E72   :    0;
 7E73   :    0;
 7E74   :    0;
 7E75   :    0;
 7E76   :    0;
 7E77   :    0;
 7E78   :    0;
 7E79   :    0;
 7E7A   :    0;
 7E7B   :    0;
 7E7C   :    0;
 7E7D   :    0;
 7E7E   :    0;
 7E7F   :    0;
 7E80   :    0;
 7E81   :    0;
 7E82   :    0;
 7E83   :    0;
 7E84   :    0;
 7E85   :    0;
 7E86   :    0;
 7E87   :    0;
 7E88   :    0;
 7E89   :    0;
 7E8A   :    0;
 7E8B   :    0;
 7E8C   :    0;
 7E8D   :    0;
 7E8E   :    0;
 7E8F   :    0;
 7E90   :    0;
 7E91   :    0;
 7E92   :    0;
 7E93   :    0;
 7E94   :    0;
 7E95   :    0;
 7E96   :    0;
 7E97   :    0;
 7E98   :    0;
 7E99   :    0;
 7E9A   :    0;
 7E9B   :    0;
 7E9C   :    0;
 7E9D   :    0;
 7E9E   :    0;
 7E9F   :    0;
 7EA0   :    0;
 7EA1   :    0;
 7EA2   :    0;
 7EA3   :    0;
 7EA4   :    0;
 7EA5   :    0;
 7EA6   :    0;
 7EA7   :    0;
 7EA8   :    0;
 7EA9   :    0;
 7EAA   :    0;
 7EAB   :    0;
 7EAC   :    0;
 7EAD   :    0;
 7EAE   :    0;
 7EAF   :    0;
 7EB0   :    0;
 7EB1   :    0;
 7EB2   :    0;
 7EB3   :    0;
 7EB4   :    0;
 7EB5   :    0;
 7EB6   :    0;
 7EB7   :    0;
 7EB8   :    0;
 7EB9   :    0;
 7EBA   :    0;
 7EBB   :    0;
 7EBC   :    0;
 7EBD   :    0;
 7EBE   :    0;
 7EBF   :    0;
 7EC0   :    0;
 7EC1   :    0;
 7EC2   :    0;
 7EC3   :    0;
 7EC4   :    0;
 7EC5   :    0;
 7EC6   :    0;
 7EC7   :    0;
 7EC8   :    0;
 7EC9   :    0;
 7ECA   :    0;
 7ECB   :    0;
 7ECC   :    0;
 7ECD   :    0;
 7ECE   :    0;
 7ECF   :    0;
 7ED0   :    0;
 7ED1   :    0;
 7ED2   :    0;
 7ED3   :    0;
 7ED4   :    0;
 7ED5   :    0;
 7ED6   :    0;
 7ED7   :    0;
 7ED8   :    0;
 7ED9   :    0;
 7EDA   :    0;
 7EDB   :    0;
 7EDC   :    0;
 7EDD   :    0;
 7EDE   :    0;
 7EDF   :    0;
 7EE0   :    0;
 7EE1   :    0;
 7EE2   :    0;
 7EE3   :    0;
 7EE4   :    0;
 7EE5   :    0;
 7EE6   :    0;
 7EE7   :    0;
 7EE8   :    0;
 7EE9   :    0;
 7EEA   :    0;
 7EEB   :    0;
 7EEC   :    0;
 7EED   :    0;
 7EEE   :    0;
 7EEF   :    0;
 7EF0   :    0;
 7EF1   :    0;
 7EF2   :    0;
 7EF3   :    0;
 7EF4   :    0;
 7EF5   :    0;
 7EF6   :    0;
 7EF7   :    0;
 7EF8   :    0;
 7EF9   :    0;
 7EFA   :    0;
 7EFB   :    0;
 7EFC   :    0;
 7EFD   :    0;
 7EFE   :    0;
 7EFF   :    0;
 7F00   :    0;
 7F01   :    0;
 7F02   :    0;
 7F03   :    0;
 7F04   :    0;
 7F05   :    0;
 7F06   :    0;
 7F07   :    0;
 7F08   :    0;
 7F09   :    0;
 7F0A   :    0;
 7F0B   :    0;
 7F0C   :    0;
 7F0D   :    0;
 7F0E   :    0;
 7F0F   :    0;
 7F10   :    0;
 7F11   :    0;
 7F12   :    0;
 7F13   :    0;
 7F14   :    0;
 7F15   :    0;
 7F16   :    0;
 7F17   :    0;
 7F18   :    0;
 7F19   :    0;
 7F1A   :    0;
 7F1B   :    0;
 7F1C   :    0;
 7F1D   :    0;
 7F1E   :    0;
 7F1F   :    0;
 7F20   :    0;
 7F21   :    0;
 7F22   :    0;
 7F23   :    0;
 7F24   :    0;
 7F25   :    0;
 7F26   :    0;
 7F27   :    0;
 7F28   :    0;
 7F29   :    0;
 7F2A   :    0;
 7F2B   :    0;
 7F2C   :    0;
 7F2D   :    0;
 7F2E   :    0;
 7F2F   :    0;
 7F30   :    0;
 7F31   :    0;
 7F32   :    0;
 7F33   :    0;
 7F34   :    0;
 7F35   :    0;
 7F36   :    0;
 7F37   :    0;
 7F38   :    0;
 7F39   :    0;
 7F3A   :    0;
 7F3B   :    0;
 7F3C   :    0;
 7F3D   :    0;
 7F3E   :    0;
 7F3F   :    0;
 7F40   :    0;
 7F41   :    0;
 7F42   :    0;
 7F43   :    0;
 7F44   :    0;
 7F45   :    0;
 7F46   :    0;
 7F47   :    0;
 7F48   :    0;
 7F49   :    0;
 7F4A   :    0;
 7F4B   :    0;
 7F4C   :    0;
 7F4D   :    0;
 7F4E   :    0;
 7F4F   :    0;
 7F50   :    0;
 7F51   :    0;
 7F52   :    0;
 7F53   :    0;
 7F54   :    0;
 7F55   :    0;
 7F56   :    0;
 7F57   :    0;
 7F58   :    0;
 7F59   :    0;
 7F5A   :    0;
 7F5B   :    0;
 7F5C   :    0;
 7F5D   :    0;
 7F5E   :    0;
 7F5F   :    0;
 7F60   :    0;
 7F61   :    0;
 7F62   :    0;
 7F63   :    0;
 7F64   :    0;
 7F65   :    0;
 7F66   :    0;
 7F67   :    0;
 7F68   :    0;
 7F69   :    0;
 7F6A   :    0;
 7F6B   :    0;
 7F6C   :    0;
 7F6D   :    0;
 7F6E   :    0;
 7F6F   :    0;
 7F70   :    0;
 7F71   :    0;
 7F72   :    0;
 7F73   :    0;
 7F74   :    0;
 7F75   :    0;
 7F76   :    0;
 7F77   :    0;
 7F78   :    0;
 7F79   :    0;
 7F7A   :    0;
 7F7B   :    0;
 7F7C   :    0;
 7F7D   :    0;
 7F7E   :    0;
 7F7F   :    0;
 7F80   :    0;
 7F81   :    0;
 7F82   :    0;
 7F83   :    0;
 7F84   :    0;
 7F85   :    0;
 7F86   :    0;
 7F87   :    0;
 7F88   :    0;
 7F89   :    0;
 7F8A   :    0;
 7F8B   :    0;
 7F8C   :    0;
 7F8D   :    0;
 7F8E   :    0;
 7F8F   :    0;
 7F90   :    0;
 7F91   :    0;
 7F92   :    0;
 7F93   :    0;
 7F94   :    0;
 7F95   :    0;
 7F96   :    0;
 7F97   :    0;
 7F98   :    0;
 7F99   :    0;
 7F9A   :    0;
 7F9B   :    0;
 7F9C   :    0;
 7F9D   :    0;
 7F9E   :    0;
 7F9F   :    0;
 7FA0   :    0;
 7FA1   :    0;
 7FA2   :    0;
 7FA3   :    0;
 7FA4   :    0;
 7FA5   :    0;
 7FA6   :    0;
 7FA7   :    0;
 7FA8   :    0;
 7FA9   :    0;
 7FAA   :    0;
 7FAB   :    0;
 7FAC   :    0;
 7FAD   :    0;
 7FAE   :    0;
 7FAF   :    0;
 7FB0   :    0;
 7FB1   :    0;
 7FB2   :    0;
 7FB3   :    0;
 7FB4   :    0;
 7FB5   :    0;
 7FB6   :    0;
 7FB7   :    0;
 7FB8   :    0;
 7FB9   :    0;
 7FBA   :    0;
 7FBB   :    0;
 7FBC   :    0;
 7FBD   :    0;
 7FBE   :    0;
 7FBF   :    0;
 7FC0   :   FF;
 7FC1   :   FF;
 7FC2   :   FF;
 7FC3   :   FF;
 7FC4   :   FF;
 7FC5   :   FF;
 7FC6   :   FF;
 7FC7   :   FF;
 7FC8   :   FF;
 7FC9   :   FF;
 7FCA   :   FF;
 7FCB   :   FF;
 7FCC   :   FF;
 7FCD   :   FF;
 7FCE   :   FF;
 7FCF   :   FF;
 7FD0   :    0;
 7FD1   :    0;
 7FD2   :    0;
 7FD3   :    0;
 7FD4   :    0;
 7FD5   :    0;
 7FD6   :    0;
 7FD7   :    0;
 7FD8   :   FF;
 7FD9   :   FF;
 7FDA   :   FF;
 7FDB   :   FF;
 7FDC   :   FF;
 7FDD   :   FF;
 7FDE   :   FF;
 7FDF   :   FF;
 7FE0   :   FF;
 7FE1   :   FF;
 7FE2   :   FF;
 7FE3   :   FF;
 7FE4   :   FF;
 7FE5   :   FF;
 7FE6   :   FF;
 7FE7   :   FF;
 7FE8   :    0;
 7FE9   :    0;
 7FEA   :    0;
 7FEB   :    0;
 7FEC   :    0;
 7FED   :    0;
 7FEE   :    0;
 7FEF   :    0;
 7FF0   :    0;
 7FF1   :    0;
 7FF2   :    0;
 7FF3   :    0;
 7FF4   :    0;
 7FF5   :    0;
 7FF6   :    0;
 7FF7   :    0;
 7FF8   :    0;
 7FF9   :    0;
 7FFA   :    0;
 7FFB   :    0;
 7FFC   :    0;
 7FFD   :    0;
 7FFE   :    0;
 7FFF   :    0;
END; 