-- Copyright (C) 1991-2013 Altera Corporation
-- Your use of Altera Corporation's design tools, logic functions 
-- and other software and tools, and its AMPP partner logic 
-- functions, and any output files from any of the foregoing 
-- (including device programming or simulation files), and any 
-- associated documentation or information are expressly subject 
-- to the terms and conditions of the Altera Program License 
-- Subscription Agreement, Altera MegaCore Function License 
-- Agreement, or other applicable license agreement, including, 
-- without limitation, that your use is for the sole purpose of 
-- programming logic devices manufactured by Altera and sold by 
-- Altera or its authorized distributors.  Please refer to the 
-- applicable agreement for further details.

-- Quartus II generated Memory Initialization File (.mif)

WIDTH=8;
DEPTH=65536;

ADDRESS_RADIX=HEX;
DATA_RADIX=HEX;

CONTENT BEGIN    
    0   :    F;
    1   :    F;
    2   :    F;
    3   :    F;
    4   :    F;
    5   :    F;
    6   :    F;
    7   :    F;
    8   :    F;
    9   :    F;
    A   :    F;
    B   :    F;
    C   :    F;
    D   :    F;
    E   :    F;
    F   :    F;
   10   :    F;
   11   :    F;
   12   :    F;
   13   :    F;
   14   :    F;
   15   :    F;
   16   :    F;
   17   :    F;
   18   :    F;
   19   :    F;
   1A   :    F;
   1B   :    F;
   1C   :    F;
   1D   :    F;
   1E   :    F;
   1F   :    F;
   20   :    F;
   21   :    F;
   22   :    F;
   23   :    F;
   24   :    F;
   25   :    F;
   26   :    F;
   27   :    F;
   28   :    F;
   29   :    F;
   2A   :    F;
   2B   :    F;
   2C   :    F;
   2D   :    F;
   2E   :    F;
   2F   :    F;
   30   :    F;
   31   :    F;
   32   :    F;
   33   :    F;
   34   :    F;
   35   :    F;
   36   :    F;
   37   :    F;
   38   :    F;
   39   :    F;
   3A   :    F;
   3B   :    F;
   3C   :    F;
   3D   :    F;
   3E   :    F;
   3F   :    F;
   40   :    F;
   41   :    F;
   42   :    F;
   43   :    F;
   44   :    F;
   45   :    F;
   46   :    F;
   47   :    F;
   48   :    F;
   49   :    F;
   4A   :    F;
   4B   :    F;
   4C   :    F;
   4D   :    F;
   4E   :    F;
   4F   :    F;
   50   :    F;
   51   :    F;
   52   :    F;
   53   :    F;
   54   :    F;
   55   :    F;
   56   :    F;
   57   :    F;
   58   :    F;
   59   :    F;
   5A   :    F;
   5B   :    F;
   5C   :    F;
   5D   :    F;
   5E   :    F;
   5F   :    F;
   60   :    F;
   61   :    F;
   62   :    F;
   63   :    F;
   64   :    F;
   65   :    F;
   66   :    F;
   67   :    F;
   68   :    F;
   69   :    F;
   6A   :    F;
   6B   :    F;
   6C   :    F;
   6D   :    F;
   6E   :    F;
   6F   :    F;
   70   :    F;
   71   :    F;
   72   :    F;
   73   :    F;
   74   :    F;
   75   :    F;
   76   :    F;
   77   :    F;
   78   :    F;
   79   :    F;
   7A   :    F;
   7B   :    F;
   7C   :    F;
   7D   :    F;
   7E   :    F;
   7F   :    F;
   80   :    F;
   81   :    F;
   82   :    F;
   83   :    F;
   84   :    F;
   85   :    F;
   86   :    F;
   87   :    F;
   88   :    F;
   89   :    F;
   8A   :    F;
   8B   :    F;
   8C   :    F;
   8D   :    F;
   8E   :    F;
   8F   :    F;
   90   :    F;
   91   :    F;
   92   :    F;
   93   :    F;
   94   :    F;
   95   :    F;
   96   :    F;
   97   :    F;
   98   :    F;
   99   :    F;
   9A   :    F;
   9B   :    F;
   9C   :    F;
   9D   :    F;
   9E   :    F;
   9F   :    F;
   A0   :    F;
   A1   :    F;
   A2   :    F;
   A3   :    F;
   A4   :    F;
   A5   :    F;
   A6   :    F;
   A7   :    F;
   A8   :    F;
   A9   :    F;
   AA   :    F;
   AB   :    F;
   AC   :    F;
   AD   :    F;
   AE   :    F;
   AF   :    F;
   B0   :    F;
   B1   :    F;
   B2   :    F;
   B3   :    F;
   B4   :    F;
   B5   :    F;
   B6   :    F;
   B7   :    F;
   B8   :    F;
   B9   :    F;
   BA   :    F;
   BB   :    F;
   BC   :    F;
   BD   :    F;
   BE   :    F;
   BF   :    F;
   C0   :    F;
   C1   :    F;
   C2   :    F;
   C3   :    F;
   C4   :    F;
   C5   :    F;
   C6   :    F;
   C7   :    F;
   C8   :    F;
   C9   :    F;
   CA   :    F;
   CB   :    F;
   CC   :    F;
   CD   :    F;
   CE   :    F;
   CF   :    F;
   D0   :    F;
   D1   :    F;
   D2   :    F;
   D3   :    F;
   D4   :    F;
   D5   :    F;
   D6   :    F;
   D7   :    F;
   D8   :    F;
   D9   :    F;
   DA   :    F;
   DB   :    F;
   DC   :    F;
   DD   :    F;
   DE   :    F;
   DF   :    F;
   E0   :    F;
   E1   :    F;
   E2   :    F;
   E3   :    F;
   E4   :    F;
   E5   :    F;
   E6   :    F;
   E7   :    F;
   E8   :    F;
   E9   :    F;
   EA   :    F;
   EB   :    F;
   EC   :    F;
   ED   :    F;
   EE   :    F;
   EF   :    F;
   F0   :    F;
   F1   :    F;
   F2   :    F;
   F3   :    F;
   F4   :    F;
   F5   :    F;
   F6   :    F;
   F7   :    F;
   F8   :    F;
   F9   :    F;
   FA   :    F;
   FB   :    F;
   FC   :    F;
   FD   :    F;
   FE   :    F;
   FF   :    F;
  100   :    F;
  101   :    F;
  102   :    F;
  103   :    F;
  104   :    F;
  105   :    F;
  106   :    F;
  107   :    F;
  108   :    F;
  109   :    F;
  10A   :    F;
  10B   :    F;
  10C   :    F;
  10D   :    F;
  10E   :    F;
  10F   :    F;
  110   :    F;
  111   :    F;
  112   :    F;
  113   :    F;
  114   :    F;
  115   :    F;
  116   :    F;
  117   :    F;
  118   :    F;
  119   :    F;
  11A   :    F;
  11B   :    F;
  11C   :    F;
  11D   :    F;
  11E   :    F;
  11F   :    F;
  120   :    F;
  121   :    F;
  122   :    F;
  123   :    F;
  124   :    F;
  125   :    F;
  126   :    F;
  127   :    F;
  128   :    F;
  129   :    F;
  12A   :    F;
  12B   :    F;
  12C   :    F;
  12D   :    F;
  12E   :    F;
  12F   :    F;
  130   :    F;
  131   :    F;
  132   :    F;
  133   :    F;
  134   :    F;
  135   :    F;
  136   :    F;
  137   :    F;
  138   :    F;
  139   :    F;
  13A   :    F;
  13B   :    F;
  13C   :    F;
  13D   :    F;
  13E   :    F;
  13F   :    F;
  140   :    F;
  141   :    F;
  142   :    F;
  143   :    F;
  144   :    F;
  145   :    F;
  146   :    F;
  147   :    F;
  148   :    F;
  149   :    F;
  14A   :    F;
  14B   :    F;
  14C   :    F;
  14D   :    F;
  14E   :    F;
  14F   :    F;
  150   :    F;
  151   :    F;
  152   :    F;
  153   :    F;
  154   :    F;
  155   :    F;
  156   :    F;
  157   :    F;
  158   :    F;
  159   :    F;
  15A   :    F;
  15B   :    F;
  15C   :    F;
  15D   :    F;
  15E   :    F;
  15F   :    F;
  160   :    F;
  161   :    F;
  162   :    F;
  163   :    F;
  164   :    F;
  165   :    F;
  166   :    F;
  167   :    F;
  168   :    F;
  169   :    F;
  16A   :    F;
  16B   :    F;
  16C   :    F;
  16D   :    F;
  16E   :    F;
  16F   :    F;
  170   :    F;
  171   :    F;
  172   :    F;
  173   :    F;
  174   :    F;
  175   :    F;
  176   :    F;
  177   :    F;
  178   :    F;
  179   :    F;
  17A   :    F;
  17B   :    F;
  17C   :    F;
  17D   :    F;
  17E   :    F;
  17F   :    F;
  180   :    F;
  181   :    F;
  182   :    F;
  183   :    F;
  184   :    F;
  185   :    F;
  186   :    F;
  187   :    F;
  188   :    F;
  189   :    F;
  18A   :    F;
  18B   :    F;
  18C   :    F;
  18D   :    F;
  18E   :    F;
  18F   :    F;
  190   :    F;
  191   :    F;
  192   :    F;
  193   :    F;
  194   :    F;
  195   :    F;
  196   :    F;
  197   :    F;
  198   :    F;
  199   :    F;
  19A   :    F;
  19B   :    F;
  19C   :    F;
  19D   :    F;
  19E   :    F;
  19F   :    F;
  1A0   :    F;
  1A1   :    F;
  1A2   :    F;
  1A3   :    F;
  1A4   :    F;
  1A5   :    F;
  1A6   :    F;
  1A7   :    F;
  1A8   :    F;
  1A9   :    F;
  1AA   :    F;
  1AB   :    F;
  1AC   :    F;
  1AD   :    F;
  1AE   :    F;
  1AF   :    F;
  1B0   :    F;
  1B1   :    F;
  1B2   :    F;
  1B3   :    F;
  1B4   :    F;
  1B5   :    F;
  1B6   :    F;
  1B7   :    F;
  1B8   :    F;
  1B9   :    F;
  1BA   :    F;
  1BB   :    F;
  1BC   :    F;
  1BD   :    F;
  1BE   :    F;
  1BF   :    F;
  1C0   :    F;
  1C1   :    F;
  1C2   :    F;
  1C3   :    F;
  1C4   :    F;
  1C5   :    F;
  1C6   :    F;
  1C7   :    F;
  1C8   :    F;
  1C9   :    F;
  1CA   :    F;
  1CB   :    F;
  1CC   :    F;
  1CD   :    F;
  1CE   :    F;
  1CF   :    F;
  1D0   :    F;
  1D1   :    F;
  1D2   :    F;
  1D3   :    F;
  1D4   :    F;
  1D5   :    F;
  1D6   :    F;
  1D7   :    F;
  1D8   :    F;
  1D9   :    F;
  1DA   :    F;
  1DB   :    F;
  1DC   :    F;
  1DD   :    F;
  1DE   :    F;
  1DF   :    F;
  1E0   :    F;
  1E1   :    F;
  1E2   :    F;
  1E3   :    F;
  1E4   :    F;
  1E5   :    F;
  1E6   :    F;
  1E7   :    F;
  1E8   :    F;
  1E9   :    F;
  1EA   :    F;
  1EB   :    F;
  1EC   :    F;
  1ED   :    F;
  1EE   :    F;
  1EF   :    F;
  1F0   :    F;
  1F1   :    F;
  1F2   :    F;
  1F3   :    F;
  1F4   :    F;
  1F5   :    F;
  1F6   :    F;
  1F7   :    F;
  1F8   :    F;
  1F9   :    F;
  1FA   :    F;
  1FB   :    F;
  1FC   :    F;
  1FD   :    F;
  1FE   :    F;
  1FF   :    F;
  200   :    F;
  201   :    F;
  202   :    F;
  203   :    F;
  204   :    F;
  205   :    F;
  206   :    F;
  207   :    F;
  208   :    F;
  209   :    F;
  20A   :    F;
  20B   :    F;
  20C   :    F;
  20D   :    F;
  20E   :    F;
  20F   :    F;
  210   :    F;
  211   :    F;
  212   :    F;
  213   :    F;
  214   :    F;
  215   :    F;
  216   :    F;
  217   :    F;
  218   :    F;
  219   :    F;
  21A   :    F;
  21B   :    F;
  21C   :    F;
  21D   :    F;
  21E   :    F;
  21F   :    F;
  220   :    F;
  221   :    F;
  222   :    F;
  223   :    F;
  224   :    F;
  225   :    F;
  226   :    F;
  227   :    F;
  228   :    F;
  229   :    F;
  22A   :    F;
  22B   :    F;
  22C   :    F;
  22D   :    F;
  22E   :    F;
  22F   :    F;
  230   :    F;
  231   :    F;
  232   :    F;
  233   :    F;
  234   :    F;
  235   :    F;
  236   :    F;
  237   :    F;
  238   :    F;
  239   :    F;
  23A   :    F;
  23B   :    F;
  23C   :    F;
  23D   :    F;
  23E   :    F;
  23F   :    F;
  240   :    F;
  241   :    F;
  242   :    F;
  243   :    F;
  244   :    F;
  245   :    F;
  246   :    F;
  247   :    F;
  248   :    F;
  249   :    F;
  24A   :    F;
  24B   :    F;
  24C   :    F;
  24D   :    F;
  24E   :    F;
  24F   :    F;
  250   :    F;
  251   :    F;
  252   :    F;
  253   :    F;
  254   :    F;
  255   :    F;
  256   :    F;
  257   :    F;
  258   :    F;
  259   :    F;
  25A   :    F;
  25B   :    F;
  25C   :    F;
  25D   :    F;
  25E   :    F;
  25F   :    F;
  260   :    F;
  261   :    F;
  262   :    F;
  263   :    F;
  264   :    F;
  265   :    F;
  266   :    F;
  267   :    F;
  268   :    F;
  269   :    F;
  26A   :    F;
  26B   :    F;
  26C   :    F;
  26D   :    F;
  26E   :    F;
  26F   :    F;
  270   :    F;
  271   :    F;
  272   :    F;
  273   :    F;
  274   :    F;
  275   :    F;
  276   :    F;
  277   :    F;
  278   :    F;
  279   :    F;
  27A   :    F;
  27B   :    F;
  27C   :    F;
  27D   :    F;
  27E   :    F;
  27F   :    F;
  280   :    F;
  281   :    F;
  282   :    F;
  283   :    F;
  284   :    F;
  285   :    F;
  286   :    F;
  287   :    F;
  288   :    F;
  289   :    F;
  28A   :    F;
  28B   :    F;
  28C   :    F;
  28D   :    F;
  28E   :    F;
  28F   :    F;
  290   :    F;
  291   :    F;
  292   :    F;
  293   :    F;
  294   :    F;
  295   :    F;
  296   :    F;
  297   :    F;
  298   :    F;
  299   :    F;
  29A   :    F;
  29B   :    F;
  29C   :    F;
  29D   :    F;
  29E   :    F;
  29F   :    F;
  2A0   :    F;
  2A1   :    F;
  2A2   :    F;
  2A3   :    F;
  2A4   :    F;
  2A5   :    F;
  2A6   :    F;
  2A7   :    F;
  2A8   :    F;
  2A9   :    F;
  2AA   :    F;
  2AB   :    F;
  2AC   :    F;
  2AD   :    F;
  2AE   :    F;
  2AF   :    F;
  2B0   :    F;
  2B1   :    F;
  2B2   :    F;
  2B3   :    F;
  2B4   :    F;
  2B5   :    F;
  2B6   :    F;
  2B7   :    F;
  2B8   :    F;
  2B9   :    F;
  2BA   :    F;
  2BB   :    F;
  2BC   :    F;
  2BD   :    F;
  2BE   :    F;
  2BF   :    F;
  2C0   :    F;
  2C1   :    F;
  2C2   :    F;
  2C3   :    F;
  2C4   :    F;
  2C5   :    F;
  2C6   :    F;
  2C7   :    F;
  2C8   :    F;
  2C9   :    F;
  2CA   :    F;
  2CB   :    F;
  2CC   :    F;
  2CD   :    F;
  2CE   :    F;
  2CF   :    F;
  2D0   :    F;
  2D1   :    F;
  2D2   :    F;
  2D3   :    F;
  2D4   :    F;
  2D5   :    F;
  2D6   :    F;
  2D7   :    F;
  2D8   :    F;
  2D9   :    F;
  2DA   :    F;
  2DB   :    F;
  2DC   :    F;
  2DD   :    F;
  2DE   :    F;
  2DF   :    F;
  2E0   :    F;
  2E1   :    F;
  2E2   :    F;
  2E3   :    F;
  2E4   :    F;
  2E5   :    F;
  2E6   :    F;
  2E7   :    F;
  2E8   :    F;
  2E9   :    F;
  2EA   :    F;
  2EB   :    F;
  2EC   :    F;
  2ED   :    F;
  2EE   :    F;
  2EF   :    F;
  2F0   :    F;
  2F1   :    F;
  2F2   :    F;
  2F3   :    F;
  2F4   :    F;
  2F5   :    F;
  2F6   :    F;
  2F7   :    F;
  2F8   :    F;
  2F9   :    F;
  2FA   :    F;
  2FB   :    F;
  2FC   :    F;
  2FD   :    F;
  2FE   :    F;
  2FF   :    F;
  300   :    F;
  301   :    F;
  302   :    F;
  303   :    F;
  304   :    F;
  305   :    F;
  306   :    F;
  307   :    F;
  308   :    F;
  309   :    F;
  30A   :    F;
  30B   :    F;
  30C   :    F;
  30D   :    F;
  30E   :    F;
  30F   :    F;
  310   :    F;
  311   :    F;
  312   :    F;
  313   :    F;
  314   :    F;
  315   :    F;
  316   :    F;
  317   :    F;
  318   :    F;
  319   :    F;
  31A   :    F;
  31B   :    F;
  31C   :    F;
  31D   :    F;
  31E   :    F;
  31F   :    F;
  320   :    F;
  321   :    F;
  322   :    F;
  323   :    F;
  324   :    F;
  325   :    F;
  326   :    F;
  327   :    F;
  328   :    F;
  329   :    F;
  32A   :    F;
  32B   :    F;
  32C   :    F;
  32D   :    F;
  32E   :    F;
  32F   :    F;
  330   :    F;
  331   :    F;
  332   :    F;
  333   :    F;
  334   :    F;
  335   :    F;
  336   :    F;
  337   :    F;
  338   :    F;
  339   :    F;
  33A   :    F;
  33B   :    F;
  33C   :    F;
  33D   :    F;
  33E   :    F;
  33F   :    F;
  340   :    F;
  341   :    F;
  342   :    F;
  343   :    F;
  344   :    F;
  345   :    F;
  346   :    F;
  347   :    F;
  348   :    F;
  349   :    F;
  34A   :    F;
  34B   :    F;
  34C   :    F;
  34D   :    F;
  34E   :    F;
  34F   :    F;
  350   :    F;
  351   :    F;
  352   :    F;
  353   :    F;
  354   :    F;
  355   :    F;
  356   :    F;
  357   :    F;
  358   :    F;
  359   :    F;
  35A   :    F;
  35B   :    F;
  35C   :    F;
  35D   :    F;
  35E   :    F;
  35F   :    F;
  360   :    F;
  361   :    F;
  362   :    F;
  363   :    F;
  364   :    F;
  365   :    F;
  366   :    F;
  367   :    F;
  368   :    F;
  369   :    F;
  36A   :    F;
  36B   :    F;
  36C   :    F;
  36D   :    F;
  36E   :    F;
  36F   :    F;
  370   :    F;
  371   :    F;
  372   :    F;
  373   :    F;
  374   :    F;
  375   :    F;
  376   :    F;
  377   :    F;
  378   :    F;
  379   :    F;
  37A   :    F;
  37B   :    F;
  37C   :    F;
  37D   :    F;
  37E   :    F;
  37F   :    F;
  380   :    F;
  381   :    F;
  382   :    F;
  383   :    F;
  384   :    F;
  385   :    F;
  386   :    F;
  387   :    F;
  388   :    F;
  389   :    F;
  38A   :    F;
  38B   :    F;
  38C   :    F;
  38D   :    F;
  38E   :    F;
  38F   :    F;
  390   :    F;
  391   :    F;
  392   :    F;
  393   :    F;
  394   :    F;
  395   :    F;
  396   :    F;
  397   :    F;
  398   :    F;
  399   :    F;
  39A   :    F;
  39B   :    F;
  39C   :    F;
  39D   :    F;
  39E   :    F;
  39F   :    F;
  3A0   :    F;
  3A1   :    F;
  3A2   :    F;
  3A3   :    F;
  3A4   :    F;
  3A5   :    F;
  3A6   :    F;
  3A7   :    F;
  3A8   :    F;
  3A9   :    F;
  3AA   :    F;
  3AB   :    F;
  3AC   :    F;
  3AD   :    F;
  3AE   :    F;
  3AF   :    F;
  3B0   :    F;
  3B1   :    F;
  3B2   :    F;
  3B3   :    F;
  3B4   :    F;
  3B5   :    F;
  3B6   :    F;
  3B7   :    F;
  3B8   :    F;
  3B9   :    F;
  3BA   :    F;
  3BB   :    F;
  3BC   :    F;
  3BD   :    F;
  3BE   :    F;
  3BF   :    F;
  3C0   :    F;
  3C1   :    F;
  3C2   :    F;
  3C3   :    F;
  3C4   :    F;
  3C5   :    F;
  3C6   :    F;
  3C7   :    F;
  3C8   :    F;
  3C9   :    F;
  3CA   :    F;
  3CB   :    F;
  3CC   :    F;
  3CD   :    F;
  3CE   :    F;
  3CF   :    F;
  3D0   :    F;
  3D1   :    F;
  3D2   :    F;
  3D3   :    F;
  3D4   :    F;
  3D5   :    F;
  3D6   :    F;
  3D7   :    F;
  3D8   :    F;
  3D9   :    F;
  3DA   :    F;
  3DB   :    F;
  3DC   :    F;
  3DD   :    F;
  3DE   :    F;
  3DF   :    F;
  3E0   :    F;
  3E1   :    F;
  3E2   :    F;
  3E3   :    F;
  3E4   :    F;
  3E5   :    F;
  3E6   :    F;
  3E7   :    F;
  3E8   :    F;
  3E9   :    F;
  3EA   :    F;
  3EB   :    F;
  3EC   :    F;
  3ED   :    F;
  3EE   :    F;
  3EF   :    F;
  3F0   :    F;
  3F1   :    F;
  3F2   :    F;
  3F3   :    F;
  3F4   :    F;
  3F5   :    F;
  3F6   :    F;
  3F7   :    F;
  3F8   :    F;
  3F9   :    F;
  3FA   :    F;
  3FB   :    F;
  3FC   :    F;
  3FD   :    F;
  3FE   :    F;
  3FF   :    F;
  400   :    F;
  401   :    F;
  402   :    F;
  403   :    F;
  404   :    F;
  405   :    F;
  406   :    F;
  407   :    F;
  408   :    F;
  409   :    F;
  40A   :    F;
  40B   :    F;
  40C   :    F;
  40D   :    F;
  40E   :    F;
  40F   :    F;
  410   :    F;
  411   :    F;
  412   :    F;
  413   :    F;
  414   :    F;
  415   :    F;
  416   :    F;
  417   :    F;
  418   :    F;
  419   :    F;
  41A   :    F;
  41B   :    F;
  41C   :    F;
  41D   :    F;
  41E   :    F;
  41F   :    F;
  420   :    F;
  421   :    F;
  422   :    F;
  423   :    F;
  424   :    F;
  425   :    F;
  426   :    F;
  427   :    F;
  428   :    F;
  429   :    F;
  42A   :    F;
  42B   :    F;
  42C   :    F;
  42D   :    F;
  42E   :    F;
  42F   :    F;
  430   :    F;
  431   :    F;
  432   :    F;
  433   :    F;
  434   :    F;
  435   :    F;
  436   :    F;
  437   :    F;
  438   :    F;
  439   :    F;
  43A   :    F;
  43B   :    F;
  43C   :    F;
  43D   :    F;
  43E   :    F;
  43F   :    F;
  440   :    F;
  441   :    F;
  442   :    F;
  443   :    F;
  444   :    F;
  445   :    F;
  446   :    F;
  447   :    F;
  448   :    F;
  449   :    F;
  44A   :    F;
  44B   :    F;
  44C   :    F;
  44D   :    F;
  44E   :    F;
  44F   :    F;
  450   :    F;
  451   :    F;
  452   :    F;
  453   :    F;
  454   :    F;
  455   :    F;
  456   :    F;
  457   :    F;
  458   :    F;
  459   :    F;
  45A   :    F;
  45B   :    F;
  45C   :    F;
  45D   :    F;
  45E   :    F;
  45F   :    F;
  460   :    F;
  461   :    F;
  462   :    F;
  463   :    F;
  464   :    F;
  465   :    F;
  466   :    F;
  467   :    F;
  468   :    F;
  469   :    F;
  46A   :    F;
  46B   :    F;
  46C   :    F;
  46D   :    F;
  46E   :    F;
  46F   :    F;
  470   :    F;
  471   :    F;
  472   :    F;
  473   :    F;
  474   :    F;
  475   :    F;
  476   :    F;
  477   :    F;
  478   :    F;
  479   :    F;
  47A   :    F;
  47B   :    F;
  47C   :    F;
  47D   :    F;
  47E   :    F;
  47F   :    F;
  480   :    F;
  481   :    F;
  482   :    F;
  483   :    F;
  484   :    F;
  485   :    F;
  486   :    F;
  487   :    F;
  488   :    F;
  489   :    F;
  48A   :    F;
  48B   :    F;
  48C   :    F;
  48D   :    F;
  48E   :    F;
  48F   :    F;
  490   :    F;
  491   :    F;
  492   :    F;
  493   :    F;
  494   :    F;
  495   :    F;
  496   :    F;
  497   :    F;
  498   :    F;
  499   :    F;
  49A   :    F;
  49B   :    F;
  49C   :    F;
  49D   :    F;
  49E   :    F;
  49F   :    F;
  4A0   :    F;
  4A1   :    F;
  4A2   :    F;
  4A3   :    F;
  4A4   :    F;
  4A5   :    F;
  4A6   :    F;
  4A7   :    F;
  4A8   :    F;
  4A9   :    F;
  4AA   :    F;
  4AB   :    F;
  4AC   :    F;
  4AD   :    F;
  4AE   :    F;
  4AF   :    F;
  4B0   :    F;
  4B1   :    F;
  4B2   :    F;
  4B3   :    F;
  4B4   :    F;
  4B5   :    F;
  4B6   :    F;
  4B7   :    F;
  4B8   :    F;
  4B9   :    F;
  4BA   :    F;
  4BB   :    F;
  4BC   :    F;
  4BD   :    F;
  4BE   :    F;
  4BF   :    F;
  4C0   :    F;
  4C1   :    F;
  4C2   :    F;
  4C3   :    F;
  4C4   :    F;
  4C5   :    F;
  4C6   :    F;
  4C7   :    F;
  4C8   :    F;
  4C9   :    F;
  4CA   :    F;
  4CB   :    F;
  4CC   :    F;
  4CD   :    F;
  4CE   :    F;
  4CF   :    F;
  4D0   :    F;
  4D1   :    F;
  4D2   :    F;
  4D3   :    F;
  4D4   :    F;
  4D5   :    F;
  4D6   :    F;
  4D7   :    F;
  4D8   :    F;
  4D9   :    F;
  4DA   :    F;
  4DB   :    F;
  4DC   :    F;
  4DD   :    F;
  4DE   :    F;
  4DF   :    F;
  4E0   :    F;
  4E1   :    F;
  4E2   :    F;
  4E3   :    F;
  4E4   :    F;
  4E5   :    F;
  4E6   :    F;
  4E7   :    F;
  4E8   :    F;
  4E9   :    F;
  4EA   :    F;
  4EB   :    F;
  4EC   :    F;
  4ED   :    F;
  4EE   :    F;
  4EF   :    F;
  4F0   :    F;
  4F1   :    F;
  4F2   :    F;
  4F3   :    F;
  4F4   :    F;
  4F5   :    F;
  4F6   :    F;
  4F7   :    F;
  4F8   :    F;
  4F9   :    F;
  4FA   :    F;
  4FB   :    F;
  4FC   :    F;
  4FD   :    F;
  4FE   :    F;
  4FF   :    F;
  500   :    F;
  501   :    F;
  502   :    F;
  503   :    F;
  504   :    F;
  505   :    F;
  506   :    F;
  507   :    F;
  508   :    F;
  509   :    F;
  50A   :    F;
  50B   :    F;
  50C   :    F;
  50D   :    F;
  50E   :    F;
  50F   :    F;
  510   :    F;
  511   :    F;
  512   :    F;
  513   :    F;
  514   :    F;
  515   :    F;
  516   :    F;
  517   :    F;
  518   :    F;
  519   :    F;
  51A   :    F;
  51B   :    F;
  51C   :    F;
  51D   :    F;
  51E   :    F;
  51F   :    F;
  520   :    F;
  521   :    F;
  522   :    F;
  523   :    F;
  524   :    F;
  525   :    F;
  526   :    F;
  527   :    F;
  528   :    F;
  529   :    F;
  52A   :    F;
  52B   :    F;
  52C   :    F;
  52D   :    F;
  52E   :    F;
  52F   :    F;
  530   :    F;
  531   :    F;
  532   :    F;
  533   :    F;
  534   :    F;
  535   :    F;
  536   :    F;
  537   :    F;
  538   :    F;
  539   :    F;
  53A   :    F;
  53B   :    F;
  53C   :    F;
  53D   :    F;
  53E   :    F;
  53F   :    F;
  540   :    F;
  541   :    F;
  542   :    F;
  543   :    F;
  544   :    F;
  545   :    F;
  546   :    F;
  547   :    F;
  548   :    F;
  549   :    F;
  54A   :    F;
  54B   :    F;
  54C   :    F;
  54D   :    F;
  54E   :    F;
  54F   :    F;
  550   :    F;
  551   :    F;
  552   :    F;
  553   :    F;
  554   :    F;
  555   :    F;
  556   :    F;
  557   :    F;
  558   :    F;
  559   :    F;
  55A   :    F;
  55B   :    F;
  55C   :    F;
  55D   :    F;
  55E   :    F;
  55F   :    F;
  560   :    F;
  561   :    F;
  562   :    F;
  563   :    F;
  564   :    F;
  565   :    F;
  566   :    F;
  567   :    F;
  568   :    F;
  569   :    F;
  56A   :    F;
  56B   :    F;
  56C   :    F;
  56D   :    F;
  56E   :    F;
  56F   :    F;
  570   :    F;
  571   :    F;
  572   :    F;
  573   :    F;
  574   :    F;
  575   :    F;
  576   :    F;
  577   :    F;
  578   :    F;
  579   :    F;
  57A   :    F;
  57B   :    F;
  57C   :    F;
  57D   :    F;
  57E   :    F;
  57F   :    F;
  580   :    F;
  581   :    F;
  582   :    F;
  583   :    F;
  584   :    F;
  585   :    F;
  586   :    F;
  587   :    F;
  588   :    F;
  589   :    F;
  58A   :    F;
  58B   :    F;
  58C   :    F;
  58D   :    F;
  58E   :    F;
  58F   :    F;
  590   :    F;
  591   :    F;
  592   :    F;
  593   :    F;
  594   :    F;
  595   :    F;
  596   :    F;
  597   :    F;
  598   :    F;
  599   :    F;
  59A   :    F;
  59B   :    F;
  59C   :    F;
  59D   :    F;
  59E   :    F;
  59F   :    F;
  5A0   :    F;
  5A1   :    F;
  5A2   :    F;
  5A3   :    F;
  5A4   :    F;
  5A5   :    F;
  5A6   :    F;
  5A7   :    F;
  5A8   :    F;
  5A9   :    F;
  5AA   :    F;
  5AB   :    F;
  5AC   :    F;
  5AD   :    F;
  5AE   :    F;
  5AF   :    F;
  5B0   :    F;
  5B1   :    F;
  5B2   :    F;
  5B3   :    F;
  5B4   :    F;
  5B5   :    F;
  5B6   :    F;
  5B7   :    F;
  5B8   :    F;
  5B9   :    F;
  5BA   :    F;
  5BB   :    F;
  5BC   :    F;
  5BD   :    F;
  5BE   :    F;
  5BF   :    F;
  5C0   :    F;
  5C1   :    F;
  5C2   :    F;
  5C3   :    F;
  5C4   :    F;
  5C5   :    F;
  5C6   :    F;
  5C7   :    F;
  5C8   :    F;
  5C9   :    F;
  5CA   :    F;
  5CB   :    F;
  5CC   :    F;
  5CD   :    F;
  5CE   :    F;
  5CF   :    F;
  5D0   :    F;
  5D1   :    F;
  5D2   :    F;
  5D3   :    F;
  5D4   :    F;
  5D5   :    F;
  5D6   :    F;
  5D7   :    F;
  5D8   :    F;
  5D9   :    F;
  5DA   :    F;
  5DB   :    F;
  5DC   :    F;
  5DD   :    F;
  5DE   :    F;
  5DF   :    F;
  5E0   :    F;
  5E1   :    F;
  5E2   :    F;
  5E3   :    F;
  5E4   :    F;
  5E5   :    F;
  5E6   :    F;
  5E7   :    F;
  5E8   :    F;
  5E9   :    F;
  5EA   :    F;
  5EB   :    F;
  5EC   :    F;
  5ED   :    F;
  5EE   :    F;
  5EF   :    F;
  5F0   :    F;
  5F1   :    F;
  5F2   :    F;
  5F3   :    F;
  5F4   :    F;
  5F5   :    F;
  5F6   :    F;
  5F7   :    F;
  5F8   :    F;
  5F9   :    F;
  5FA   :    F;
  5FB   :    F;
  5FC   :    F;
  5FD   :    F;
  5FE   :    F;
  5FF   :    F;
  600   :    F;
  601   :    F;
  602   :    F;
  603   :    F;
  604   :    F;
  605   :    F;
  606   :    F;
  607   :    F;
  608   :    F;
  609   :    F;
  60A   :    F;
  60B   :    F;
  60C   :    F;
  60D   :    F;
  60E   :    F;
  60F   :    F;
  610   :    F;
  611   :    F;
  612   :    F;
  613   :    F;
  614   :    F;
  615   :    F;
  616   :    F;
  617   :    F;
  618   :    F;
  619   :    F;
  61A   :    F;
  61B   :    F;
  61C   :    F;
  61D   :    F;
  61E   :    F;
  61F   :    F;
  620   :    F;
  621   :    F;
  622   :    F;
  623   :    F;
  624   :    F;
  625   :    F;
  626   :    F;
  627   :    F;
  628   :    F;
  629   :    F;
  62A   :    F;
  62B   :    F;
  62C   :    F;
  62D   :    F;
  62E   :    F;
  62F   :    F;
  630   :    F;
  631   :    F;
  632   :    F;
  633   :    F;
  634   :    F;
  635   :    F;
  636   :    F;
  637   :    F;
  638   :    F;
  639   :    F;
  63A   :    F;
  63B   :    F;
  63C   :    F;
  63D   :    F;
  63E   :    F;
  63F   :    F;
  640   :    F;
  641   :    F;
  642   :    F;
  643   :    F;
  644   :    F;
  645   :    F;
  646   :    F;
  647   :    F;
  648   :    F;
  649   :    F;
  64A   :    F;
  64B   :    F;
  64C   :    F;
  64D   :    F;
  64E   :    F;
  64F   :    F;
  650   :    F;
  651   :    F;
  652   :    F;
  653   :    F;
  654   :    F;
  655   :    F;
  656   :    F;
  657   :    F;
  658   :    F;
  659   :    F;
  65A   :    F;
  65B   :    F;
  65C   :    F;
  65D   :    F;
  65E   :    F;
  65F   :    F;
  660   :    F;
  661   :    F;
  662   :    F;
  663   :    F;
  664   :    F;
  665   :    F;
  666   :    F;
  667   :    F;
  668   :    F;
  669   :    F;
  66A   :    F;
  66B   :    F;
  66C   :    F;
  66D   :    F;
  66E   :    F;
  66F   :    F;
  670   :    F;
  671   :    F;
  672   :    F;
  673   :    F;
  674   :    F;
  675   :    F;
  676   :    F;
  677   :    F;
  678   :    F;
  679   :    F;
  67A   :    F;
  67B   :    F;
  67C   :    F;
  67D   :    F;
  67E   :    F;
  67F   :    F;
  680   :    F;
  681   :    F;
  682   :    F;
  683   :    F;
  684   :    F;
  685   :    F;
  686   :    F;
  687   :    F;
  688   :    F;
  689   :    F;
  68A   :    F;
  68B   :    F;
  68C   :    F;
  68D   :    F;
  68E   :    F;
  68F   :    F;
  690   :    F;
  691   :    F;
  692   :    F;
  693   :    F;
  694   :    F;
  695   :    F;
  696   :    F;
  697   :    F;
  698   :    F;
  699   :    F;
  69A   :    F;
  69B   :    F;
  69C   :    F;
  69D   :    F;
  69E   :    F;
  69F   :    F;
  6A0   :    F;
  6A1   :    F;
  6A2   :    F;
  6A3   :    F;
  6A4   :    F;
  6A5   :    F;
  6A6   :    F;
  6A7   :    F;
  6A8   :    F;
  6A9   :    F;
  6AA   :    F;
  6AB   :    F;
  6AC   :    F;
  6AD   :    F;
  6AE   :    F;
  6AF   :    F;
  6B0   :    F;
  6B1   :    F;
  6B2   :    F;
  6B3   :    F;
  6B4   :    F;
  6B5   :    F;
  6B6   :    F;
  6B7   :    F;
  6B8   :    F;
  6B9   :    F;
  6BA   :    F;
  6BB   :    F;
  6BC   :    F;
  6BD   :    F;
  6BE   :    F;
  6BF   :    F;
  6C0   :    F;
  6C1   :    F;
  6C2   :    F;
  6C3   :    F;
  6C4   :    F;
  6C5   :    F;
  6C6   :    F;
  6C7   :    F;
  6C8   :    F;
  6C9   :    F;
  6CA   :    F;
  6CB   :    F;
  6CC   :    F;
  6CD   :    F;
  6CE   :    F;
  6CF   :    F;
  6D0   :    F;
  6D1   :    F;
  6D2   :    F;
  6D3   :    F;
  6D4   :    F;
  6D5   :    F;
  6D6   :    F;
  6D7   :    F;
  6D8   :    F;
  6D9   :    F;
  6DA   :    F;
  6DB   :    F;
  6DC   :    F;
  6DD   :    F;
  6DE   :    F;
  6DF   :    F;
  6E0   :    F;
  6E1   :    F;
  6E2   :    F;
  6E3   :    F;
  6E4   :    F;
  6E5   :    F;
  6E6   :    F;
  6E7   :    F;
  6E8   :    F;
  6E9   :    F;
  6EA   :    F;
  6EB   :    F;
  6EC   :    F;
  6ED   :    F;
  6EE   :    F;
  6EF   :    F;
  6F0   :    F;
  6F1   :    F;
  6F2   :    F;
  6F3   :    F;
  6F4   :    F;
  6F5   :    F;
  6F6   :    F;
  6F7   :    F;
  6F8   :    F;
  6F9   :    F;
  6FA   :    F;
  6FB   :    F;
  6FC   :    F;
  6FD   :    F;
  6FE   :    F;
  6FF   :    F;
  700   :    F;
  701   :    F;
  702   :    F;
  703   :    F;
  704   :    F;
  705   :    F;
  706   :    F;
  707   :    F;
  708   :    F;
  709   :    F;
  70A   :    F;
  70B   :    F;
  70C   :    F;
  70D   :    F;
  70E   :    F;
  70F   :    F;
  710   :    F;
  711   :    F;
  712   :    F;
  713   :    F;
  714   :    F;
  715   :    F;
  716   :    F;
  717   :    F;
  718   :    F;
  719   :    F;
  71A   :    F;
  71B   :    F;
  71C   :    F;
  71D   :    F;
  71E   :    F;
  71F   :    F;
  720   :    F;
  721   :    F;
  722   :    F;
  723   :    F;
  724   :    F;
  725   :    F;
  726   :    F;
  727   :    F;
  728   :    F;
  729   :    F;
  72A   :    F;
  72B   :    F;
  72C   :    F;
  72D   :    F;
  72E   :    F;
  72F   :    F;
  730   :    F;
  731   :    F;
  732   :    F;
  733   :    F;
  734   :    F;
  735   :    F;
  736   :    F;
  737   :    F;
  738   :    F;
  739   :    F;
  73A   :    F;
  73B   :    F;
  73C   :    F;
  73D   :    F;
  73E   :    F;
  73F   :    F;
  740   :    F;
  741   :    F;
  742   :    F;
  743   :    F;
  744   :    F;
  745   :    F;
  746   :    F;
  747   :    F;
  748   :    F;
  749   :    F;
  74A   :    F;
  74B   :    F;
  74C   :    F;
  74D   :    F;
  74E   :    F;
  74F   :    F;
  750   :    F;
  751   :    F;
  752   :    F;
  753   :    F;
  754   :    F;
  755   :    F;
  756   :    F;
  757   :    F;
  758   :    F;
  759   :    F;
  75A   :    F;
  75B   :    F;
  75C   :    F;
  75D   :    F;
  75E   :    F;
  75F   :    F;
  760   :    F;
  761   :    F;
  762   :    F;
  763   :    F;
  764   :    F;
  765   :    F;
  766   :    F;
  767   :    F;
  768   :    F;
  769   :    F;
  76A   :    F;
  76B   :    F;
  76C   :    F;
  76D   :    F;
  76E   :    F;
  76F   :    F;
  770   :    F;
  771   :    F;
  772   :    F;
  773   :    F;
  774   :    F;
  775   :    F;
  776   :    F;
  777   :    F;
  778   :    F;
  779   :    F;
  77A   :    F;
  77B   :    F;
  77C   :    F;
  77D   :    F;
  77E   :    F;
  77F   :    F;
  780   :    F;
  781   :    F;
  782   :    F;
  783   :    F;
  784   :    F;
  785   :    F;
  786   :    F;
  787   :    F;
  788   :    F;
  789   :    F;
  78A   :    F;
  78B   :    F;
  78C   :    F;
  78D   :    F;
  78E   :    F;
  78F   :    F;
  790   :    F;
  791   :    F;
  792   :    F;
  793   :    F;
  794   :    F;
  795   :    F;
  796   :    F;
  797   :    F;
  798   :    F;
  799   :    F;
  79A   :    F;
  79B   :    F;
  79C   :    F;
  79D   :    F;
  79E   :    F;
  79F   :    F;
  7A0   :    F;
  7A1   :    F;
  7A2   :    F;
  7A3   :    F;
  7A4   :    F;
  7A5   :    F;
  7A6   :    F;
  7A7   :    F;
  7A8   :    F;
  7A9   :    F;
  7AA   :    F;
  7AB   :    F;
  7AC   :    F;
  7AD   :    F;
  7AE   :    F;
  7AF   :    F;
  7B0   :    F;
  7B1   :    F;
  7B2   :    F;
  7B3   :    F;
  7B4   :    F;
  7B5   :    F;
  7B6   :    F;
  7B7   :    F;
  7B8   :    F;
  7B9   :    F;
  7BA   :    F;
  7BB   :    F;
  7BC   :    F;
  7BD   :    F;
  7BE   :    F;
  7BF   :    F;
  7C0   :    F;
  7C1   :    F;
  7C2   :    F;
  7C3   :    F;
  7C4   :    F;
  7C5   :    F;
  7C6   :    F;
  7C7   :    F;
  7C8   :    F;
  7C9   :    F;
  7CA   :    F;
  7CB   :    F;
  7CC   :    F;
  7CD   :    F;
  7CE   :    F;
  7CF   :    F;
  7D0   :    F;
  7D1   :    F;
  7D2   :    F;
  7D3   :    F;
  7D4   :    F;
  7D5   :    F;
  7D6   :    F;
  7D7   :    F;
  7D8   :    F;
  7D9   :    F;
  7DA   :    F;
  7DB   :    F;
  7DC   :    F;
  7DD   :    F;
  7DE   :    F;
  7DF   :    F;
  7E0   :    F;
  7E1   :    F;
  7E2   :    F;
  7E3   :    F;
  7E4   :    F;
  7E5   :    F;
  7E6   :    F;
  7E7   :    F;
  7E8   :    F;
  7E9   :    F;
  7EA   :    F;
  7EB   :    F;
  7EC   :    F;
  7ED   :    F;
  7EE   :    F;
  7EF   :    F;
  7F0   :    F;
  7F1   :    F;
  7F2   :    F;
  7F3   :    F;
  7F4   :    F;
  7F5   :    F;
  7F6   :    F;
  7F7   :    F;
  7F8   :    F;
  7F9   :    F;
  7FA   :    F;
  7FB   :    F;
  7FC   :    F;
  7FD   :    F;
  7FE   :    F;
  7FF   :    F;
  800   :    F;
  801   :    F;
  802   :    F;
  803   :    F;
  804   :    F;
  805   :    F;
  806   :    F;
  807   :    F;
  808   :    F;
  809   :    F;
  80A   :    F;
  80B   :    F;
  80C   :    F;
  80D   :    F;
  80E   :    F;
  80F   :    F;
  810   :    F;
  811   :    F;
  812   :    F;
  813   :    F;
  814   :    F;
  815   :    F;
  816   :    F;
  817   :    F;
  818   :    F;
  819   :    F;
  81A   :    F;
  81B   :    F;
  81C   :    F;
  81D   :    F;
  81E   :    F;
  81F   :    F;
  820   :    F;
  821   :    F;
  822   :    F;
  823   :    F;
  824   :    F;
  825   :    F;
  826   :    F;
  827   :    F;
  828   :    F;
  829   :    F;
  82A   :    F;
  82B   :    F;
  82C   :    F;
  82D   :    F;
  82E   :    F;
  82F   :    F;
  830   :    F;
  831   :    F;
  832   :    F;
  833   :    F;
  834   :    F;
  835   :    F;
  836   :    F;
  837   :    F;
  838   :    F;
  839   :    F;
  83A   :    F;
  83B   :    F;
  83C   :    F;
  83D   :    F;
  83E   :    F;
  83F   :    F;
  840   :    F;
  841   :    F;
  842   :    F;
  843   :    F;
  844   :    F;
  845   :    F;
  846   :    F;
  847   :    F;
  848   :    F;
  849   :    F;
  84A   :    F;
  84B   :    F;
  84C   :    F;
  84D   :    F;
  84E   :    F;
  84F   :    F;
  850   :    F;
  851   :    F;
  852   :    F;
  853   :    F;
  854   :    F;
  855   :    F;
  856   :    F;
  857   :    F;
  858   :    F;
  859   :    F;
  85A   :    F;
  85B   :    F;
  85C   :    F;
  85D   :    F;
  85E   :    F;
  85F   :    F;
  860   :    F;
  861   :    F;
  862   :    F;
  863   :    F;
  864   :    F;
  865   :    F;
  866   :    F;
  867   :    F;
  868   :    F;
  869   :    F;
  86A   :    F;
  86B   :    F;
  86C   :    F;
  86D   :    F;
  86E   :    F;
  86F   :    F;
  870   :    F;
  871   :    F;
  872   :    F;
  873   :    F;
  874   :    F;
  875   :    F;
  876   :    F;
  877   :    F;
  878   :    F;
  879   :    F;
  87A   :    F;
  87B   :    F;
  87C   :    F;
  87D   :    F;
  87E   :    F;
  87F   :    F;
  880   :    F;
  881   :    F;
  882   :    F;
  883   :    F;
  884   :    F;
  885   :    F;
  886   :    F;
  887   :    F;
  888   :    F;
  889   :    F;
  88A   :    F;
  88B   :    F;
  88C   :    F;
  88D   :    F;
  88E   :    F;
  88F   :    F;
  890   :    F;
  891   :    F;
  892   :    F;
  893   :    F;
  894   :    F;
  895   :    F;
  896   :    F;
  897   :    F;
  898   :    F;
  899   :    F;
  89A   :    F;
  89B   :    F;
  89C   :    F;
  89D   :    F;
  89E   :    F;
  89F   :    F;
  8A0   :    F;
  8A1   :    F;
  8A2   :    F;
  8A3   :    F;
  8A4   :    F;
  8A5   :    F;
  8A6   :    F;
  8A7   :    F;
  8A8   :    F;
  8A9   :    F;
  8AA   :    F;
  8AB   :    F;
  8AC   :    F;
  8AD   :    F;
  8AE   :    F;
  8AF   :    F;
  8B0   :    F;
  8B1   :    F;
  8B2   :    F;
  8B3   :    F;
  8B4   :    F;
  8B5   :    F;
  8B6   :    F;
  8B7   :    F;
  8B8   :    F;
  8B9   :    F;
  8BA   :    F;
  8BB   :    F;
  8BC   :    F;
  8BD   :    F;
  8BE   :    F;
  8BF   :    F;
  8C0   :    F;
  8C1   :    F;
  8C2   :    F;
  8C3   :    F;
  8C4   :    F;
  8C5   :    F;
  8C6   :    F;
  8C7   :    F;
  8C8   :    F;
  8C9   :    F;
  8CA   :    F;
  8CB   :    F;
  8CC   :    F;
  8CD   :    F;
  8CE   :    F;
  8CF   :    F;
  8D0   :    F;
  8D1   :    F;
  8D2   :    F;
  8D3   :    F;
  8D4   :    F;
  8D5   :    F;
  8D6   :    F;
  8D7   :    F;
  8D8   :    F;
  8D9   :    F;
  8DA   :    F;
  8DB   :    F;
  8DC   :    F;
  8DD   :    F;
  8DE   :    F;
  8DF   :    F;
  8E0   :    F;
  8E1   :    F;
  8E2   :    F;
  8E3   :    F;
  8E4   :    F;
  8E5   :    F;
  8E6   :    F;
  8E7   :    F;
  8E8   :    F;
  8E9   :    F;
  8EA   :    F;
  8EB   :    F;
  8EC   :    F;
  8ED   :    F;
  8EE   :    F;
  8EF   :    F;
  8F0   :    F;
  8F1   :    F;
  8F2   :    F;
  8F3   :    F;
  8F4   :    F;
  8F5   :    F;
  8F6   :    F;
  8F7   :    F;
  8F8   :    F;
  8F9   :    F;
  8FA   :    F;
  8FB   :    F;
  8FC   :    F;
  8FD   :    F;
  8FE   :    F;
  8FF   :    F;
  900   :    F;
  901   :    F;
  902   :    F;
  903   :    F;
  904   :    F;
  905   :    F;
  906   :    F;
  907   :    F;
  908   :    F;
  909   :    F;
  90A   :    F;
  90B   :    F;
  90C   :    F;
  90D   :    F;
  90E   :    F;
  90F   :    F;
  910   :    F;
  911   :    F;
  912   :    F;
  913   :    F;
  914   :    F;
  915   :    F;
  916   :    F;
  917   :    F;
  918   :    F;
  919   :    F;
  91A   :    F;
  91B   :    F;
  91C   :    F;
  91D   :    F;
  91E   :    F;
  91F   :    F;
  920   :    F;
  921   :    F;
  922   :    F;
  923   :    F;
  924   :    F;
  925   :    F;
  926   :    F;
  927   :    F;
  928   :    F;
  929   :    F;
  92A   :    F;
  92B   :    F;
  92C   :    F;
  92D   :    F;
  92E   :    F;
  92F   :    F;
  930   :    F;
  931   :    F;
  932   :    F;
  933   :    F;
  934   :    F;
  935   :    F;
  936   :    F;
  937   :    F;
  938   :    F;
  939   :    F;
  93A   :    F;
  93B   :    F;
  93C   :    F;
  93D   :    F;
  93E   :    F;
  93F   :    F;
  940   :    F;
  941   :    F;
  942   :    F;
  943   :    F;
  944   :    F;
  945   :    F;
  946   :    F;
  947   :    F;
  948   :    F;
  949   :    F;
  94A   :    F;
  94B   :    F;
  94C   :    F;
  94D   :    F;
  94E   :    F;
  94F   :    F;
  950   :    F;
  951   :    F;
  952   :    F;
  953   :    F;
  954   :    F;
  955   :    F;
  956   :    F;
  957   :    F;
  958   :    F;
  959   :    F;
  95A   :    F;
  95B   :    F;
  95C   :    F;
  95D   :    F;
  95E   :    F;
  95F   :    F;
  960   :    F;
  961   :    F;
  962   :    F;
  963   :    F;
  964   :    F;
  965   :    F;
  966   :    F;
  967   :    F;
  968   :    F;
  969   :    F;
  96A   :    F;
  96B   :    F;
  96C   :    F;
  96D   :    F;
  96E   :    F;
  96F   :    F;
  970   :    F;
  971   :    F;
  972   :    F;
  973   :    F;
  974   :    F;
  975   :    F;
  976   :    F;
  977   :    F;
  978   :    F;
  979   :    F;
  97A   :    F;
  97B   :    F;
  97C   :    F;
  97D   :    F;
  97E   :    F;
  97F   :    F;
  980   :    F;
  981   :    F;
  982   :    F;
  983   :    F;
  984   :    F;
  985   :    F;
  986   :    F;
  987   :    F;
  988   :    F;
  989   :    F;
  98A   :    F;
  98B   :    F;
  98C   :    F;
  98D   :    F;
  98E   :    F;
  98F   :    F;
  990   :    F;
  991   :    F;
  992   :    F;
  993   :    F;
  994   :    F;
  995   :    F;
  996   :    F;
  997   :    F;
  998   :    F;
  999   :    F;
  99A   :    F;
  99B   :    F;
  99C   :    F;
  99D   :    F;
  99E   :    F;
  99F   :    F;
  9A0   :    F;
  9A1   :    F;
  9A2   :    F;
  9A3   :    F;
  9A4   :    F;
  9A5   :    F;
  9A6   :    F;
  9A7   :    F;
  9A8   :    F;
  9A9   :    F;
  9AA   :    F;
  9AB   :    F;
  9AC   :    F;
  9AD   :    F;
  9AE   :    F;
  9AF   :    F;
  9B0   :    F;
  9B1   :    F;
  9B2   :    F;
  9B3   :    F;
  9B4   :    F;
  9B5   :    F;
  9B6   :    F;
  9B7   :    F;
  9B8   :    F;
  9B9   :    F;
  9BA   :    F;
  9BB   :    F;
  9BC   :    F;
  9BD   :    F;
  9BE   :    F;
  9BF   :    F;
  9C0   :    F;
  9C1   :    F;
  9C2   :    F;
  9C3   :    F;
  9C4   :    F;
  9C5   :    F;
  9C6   :    F;
  9C7   :    F;
  9C8   :    F;
  9C9   :    F;
  9CA   :    F;
  9CB   :    F;
  9CC   :    F;
  9CD   :    F;
  9CE   :    F;
  9CF   :    F;
  9D0   :    F;
  9D1   :    F;
  9D2   :    F;
  9D3   :    F;
  9D4   :    F;
  9D5   :    F;
  9D6   :    F;
  9D7   :    F;
  9D8   :    F;
  9D9   :    F;
  9DA   :    F;
  9DB   :    F;
  9DC   :    F;
  9DD   :    F;
  9DE   :    F;
  9DF   :    F;
  9E0   :    F;
  9E1   :    F;
  9E2   :    F;
  9E3   :    F;
  9E4   :    F;
  9E5   :    F;
  9E6   :    F;
  9E7   :    F;
  9E8   :    F;
  9E9   :    F;
  9EA   :    F;
  9EB   :    F;
  9EC   :    F;
  9ED   :    F;
  9EE   :    F;
  9EF   :    F;
  9F0   :    F;
  9F1   :    F;
  9F2   :    F;
  9F3   :    F;
  9F4   :    F;
  9F5   :    F;
  9F6   :    F;
  9F7   :    F;
  9F8   :    F;
  9F9   :    F;
  9FA   :    F;
  9FB   :    F;
  9FC   :    F;
  9FD   :    F;
  9FE   :    F;
  9FF   :    F;
  A00   :    F;
  A01   :    F;
  A02   :    F;
  A03   :    F;
  A04   :    F;
  A05   :    F;
  A06   :    F;
  A07   :    F;
  A08   :    F;
  A09   :    F;
  A0A   :    F;
  A0B   :    F;
  A0C   :    F;
  A0D   :    F;
  A0E   :    F;
  A0F   :    F;
  A10   :    F;
  A11   :    F;
  A12   :    F;
  A13   :    F;
  A14   :    F;
  A15   :    F;
  A16   :    F;
  A17   :    F;
  A18   :    F;
  A19   :    F;
  A1A   :    F;
  A1B   :    F;
  A1C   :    F;
  A1D   :    F;
  A1E   :    F;
  A1F   :    F;
  A20   :    F;
  A21   :    F;
  A22   :    F;
  A23   :    F;
  A24   :    F;
  A25   :    F;
  A26   :    F;
  A27   :    F;
  A28   :    F;
  A29   :    F;
  A2A   :    F;
  A2B   :    F;
  A2C   :    F;
  A2D   :    F;
  A2E   :    F;
  A2F   :    F;
  A30   :    F;
  A31   :    F;
  A32   :    F;
  A33   :    F;
  A34   :    F;
  A35   :    F;
  A36   :    F;
  A37   :    F;
  A38   :    F;
  A39   :    F;
  A3A   :    F;
  A3B   :    F;
  A3C   :    F;
  A3D   :    F;
  A3E   :    F;
  A3F   :    F;
  A40   :    F;
  A41   :    F;
  A42   :    F;
  A43   :    F;
  A44   :    F;
  A45   :    F;
  A46   :    F;
  A47   :    F;
  A48   :    F;
  A49   :    F;
  A4A   :    F;
  A4B   :    F;
  A4C   :    F;
  A4D   :    F;
  A4E   :    F;
  A4F   :    F;
  A50   :    F;
  A51   :    F;
  A52   :    F;
  A53   :    F;
  A54   :    F;
  A55   :    F;
  A56   :    F;
  A57   :    F;
  A58   :    F;
  A59   :    F;
  A5A   :    F;
  A5B   :    F;
  A5C   :    F;
  A5D   :    F;
  A5E   :    F;
  A5F   :    F;
  A60   :    F;
  A61   :    F;
  A62   :    F;
  A63   :    F;
  A64   :    F;
  A65   :    F;
  A66   :    F;
  A67   :    F;
  A68   :    F;
  A69   :    F;
  A6A   :    F;
  A6B   :    F;
  A6C   :    F;
  A6D   :    F;
  A6E   :    F;
  A6F   :    F;
  A70   :    F;
  A71   :    F;
  A72   :    F;
  A73   :    F;
  A74   :    F;
  A75   :    F;
  A76   :    F;
  A77   :    F;
  A78   :    F;
  A79   :    F;
  A7A   :    F;
  A7B   :    F;
  A7C   :    F;
  A7D   :    F;
  A7E   :    F;
  A7F   :    F;
  A80   :    F;
  A81   :    F;
  A82   :    F;
  A83   :    F;
  A84   :    F;
  A85   :    F;
  A86   :    F;
  A87   :    F;
  A88   :    F;
  A89   :    F;
  A8A   :    F;
  A8B   :    F;
  A8C   :    F;
  A8D   :    F;
  A8E   :    F;
  A8F   :    F;
  A90   :    F;
  A91   :    F;
  A92   :    F;
  A93   :    F;
  A94   :    F;
  A95   :    F;
  A96   :    F;
  A97   :    F;
  A98   :    F;
  A99   :    F;
  A9A   :    F;
  A9B   :    F;
  A9C   :    F;
  A9D   :    F;
  A9E   :    F;
  A9F   :    F;
  AA0   :    F;
  AA1   :    F;
  AA2   :    F;
  AA3   :    F;
  AA4   :    F;
  AA5   :    F;
  AA6   :    F;
  AA7   :    F;
  AA8   :    F;
  AA9   :    F;
  AAA   :    F;
  AAB   :    F;
  AAC   :    F;
  AAD   :    F;
  AAE   :    F;
  AAF   :    F;
  AB0   :    F;
  AB1   :    F;
  AB2   :    F;
  AB3   :    F;
  AB4   :    F;
  AB5   :    F;
  AB6   :    F;
  AB7   :    F;
  AB8   :    F;
  AB9   :    F;
  ABA   :    F;
  ABB   :    F;
  ABC   :    F;
  ABD   :    F;
  ABE   :    F;
  ABF   :    F;
  AC0   :    F;
  AC1   :    F;
  AC2   :    F;
  AC3   :    F;
  AC4   :    F;
  AC5   :    F;
  AC6   :    F;
  AC7   :    F;
  AC8   :    F;
  AC9   :    F;
  ACA   :    F;
  ACB   :    F;
  ACC   :    F;
  ACD   :    F;
  ACE   :    F;
  ACF   :    F;
  AD0   :    F;
  AD1   :    F;
  AD2   :    F;
  AD3   :    F;
  AD4   :    F;
  AD5   :    F;
  AD6   :    F;
  AD7   :    F;
  AD8   :    F;
  AD9   :    F;
  ADA   :    F;
  ADB   :    F;
  ADC   :    F;
  ADD   :    F;
  ADE   :    F;
  ADF   :    F;
  AE0   :    F;
  AE1   :    F;
  AE2   :    F;
  AE3   :    F;
  AE4   :    F;
  AE5   :    F;
  AE6   :    F;
  AE7   :    F;
  AE8   :    F;
  AE9   :    F;
  AEA   :    F;
  AEB   :    F;
  AEC   :    F;
  AED   :    F;
  AEE   :    F;
  AEF   :    F;
  AF0   :    F;
  AF1   :    F;
  AF2   :    F;
  AF3   :    F;
  AF4   :    F;
  AF5   :    F;
  AF6   :    F;
  AF7   :    F;
  AF8   :    F;
  AF9   :    F;
  AFA   :    F;
  AFB   :    F;
  AFC   :    F;
  AFD   :    F;
  AFE   :    F;
  AFF   :    F;
  B00   :    F;
  B01   :    F;
  B02   :    F;
  B03   :    F;
  B04   :    F;
  B05   :    F;
  B06   :    F;
  B07   :    F;
  B08   :    F;
  B09   :    F;
  B0A   :    F;
  B0B   :    F;
  B0C   :    F;
  B0D   :    F;
  B0E   :    F;
  B0F   :    F;
  B10   :    F;
  B11   :    F;
  B12   :    F;
  B13   :    F;
  B14   :    F;
  B15   :    F;
  B16   :    F;
  B17   :    F;
  B18   :    F;
  B19   :    F;
  B1A   :    F;
  B1B   :    F;
  B1C   :    F;
  B1D   :    F;
  B1E   :    F;
  B1F   :    F;
  B20   :    F;
  B21   :    F;
  B22   :    F;
  B23   :    F;
  B24   :    F;
  B25   :    F;
  B26   :    F;
  B27   :    F;
  B28   :    F;
  B29   :    F;
  B2A   :    F;
  B2B   :    F;
  B2C   :    F;
  B2D   :    F;
  B2E   :    F;
  B2F   :    F;
  B30   :    F;
  B31   :    F;
  B32   :    F;
  B33   :    F;
  B34   :    F;
  B35   :    F;
  B36   :    F;
  B37   :    F;
  B38   :    F;
  B39   :    F;
  B3A   :    F;
  B3B   :    F;
  B3C   :    F;
  B3D   :    F;
  B3E   :    F;
  B3F   :    F;
  B40   :    F;
  B41   :    F;
  B42   :    F;
  B43   :    F;
  B44   :    F;
  B45   :    F;
  B46   :    F;
  B47   :    F;
  B48   :    F;
  B49   :    F;
  B4A   :    F;
  B4B   :    F;
  B4C   :    F;
  B4D   :    F;
  B4E   :    F;
  B4F   :    F;
  B50   :    F;
  B51   :    F;
  B52   :    F;
  B53   :    F;
  B54   :    F;
  B55   :    F;
  B56   :    F;
  B57   :    F;
  B58   :    F;
  B59   :    F;
  B5A   :    F;
  B5B   :    F;
  B5C   :    F;
  B5D   :    F;
  B5E   :    F;
  B5F   :    F;
  B60   :    F;
  B61   :    F;
  B62   :    F;
  B63   :    F;
  B64   :    F;
  B65   :    F;
  B66   :    F;
  B67   :    F;
  B68   :    F;
  B69   :    F;
  B6A   :    F;
  B6B   :    F;
  B6C   :    F;
  B6D   :    F;
  B6E   :    F;
  B6F   :    F;
  B70   :    F;
  B71   :    F;
  B72   :    F;
  B73   :    F;
  B74   :    F;
  B75   :    F;
  B76   :    F;
  B77   :    F;
  B78   :    F;
  B79   :    F;
  B7A   :    F;
  B7B   :    F;
  B7C   :    F;
  B7D   :    F;
  B7E   :    F;
  B7F   :    F;
  B80   :    F;
  B81   :    F;
  B82   :    F;
  B83   :    F;
  B84   :    F;
  B85   :    F;
  B86   :    F;
  B87   :    F;
  B88   :    F;
  B89   :    F;
  B8A   :    F;
  B8B   :    F;
  B8C   :    F;
  B8D   :    F;
  B8E   :    F;
  B8F   :    F;
  B90   :    F;
  B91   :    F;
  B92   :    F;
  B93   :    F;
  B94   :    F;
  B95   :    F;
  B96   :    F;
  B97   :    F;
  B98   :    F;
  B99   :    F;
  B9A   :    F;
  B9B   :    F;
  B9C   :    F;
  B9D   :    F;
  B9E   :    F;
  B9F   :    F;
  BA0   :    F;
  BA1   :    F;
  BA2   :    F;
  BA3   :    F;
  BA4   :    F;
  BA5   :    F;
  BA6   :    F;
  BA7   :    F;
  BA8   :    F;
  BA9   :    F;
  BAA   :    F;
  BAB   :    F;
  BAC   :    F;
  BAD   :    F;
  BAE   :    F;
  BAF   :    F;
  BB0   :    F;
  BB1   :    F;
  BB2   :    F;
  BB3   :    F;
  BB4   :    F;
  BB5   :    F;
  BB6   :    F;
  BB7   :    F;
  BB8   :    F;
  BB9   :    F;
  BBA   :    F;
  BBB   :    F;
  BBC   :    F;
  BBD   :    F;
  BBE   :    F;
  BBF   :    F;
  BC0   :    F;
  BC1   :    F;
  BC2   :    F;
  BC3   :    F;
  BC4   :    F;
  BC5   :    F;
  BC6   :    F;
  BC7   :    F;
  BC8   :    F;
  BC9   :    F;
  BCA   :    F;
  BCB   :    F;
  BCC   :    F;
  BCD   :    F;
  BCE   :    F;
  BCF   :    F;
  BD0   :    F;
  BD1   :    F;
  BD2   :    F;
  BD3   :    F;
  BD4   :    F;
  BD5   :    F;
  BD6   :    F;
  BD7   :    F;
  BD8   :    F;
  BD9   :    F;
  BDA   :    F;
  BDB   :    F;
  BDC   :    F;
  BDD   :    F;
  BDE   :    F;
  BDF   :    F;
  BE0   :    F;
  BE1   :    F;
  BE2   :    F;
  BE3   :    F;
  BE4   :    F;
  BE5   :    F;
  BE6   :    F;
  BE7   :    F;
  BE8   :    F;
  BE9   :    F;
  BEA   :    F;
  BEB   :    F;
  BEC   :    F;
  BED   :    F;
  BEE   :    F;
  BEF   :    F;
  BF0   :    F;
  BF1   :    F;
  BF2   :    F;
  BF3   :    F;
  BF4   :    F;
  BF5   :    F;
  BF6   :    F;
  BF7   :    F;
  BF8   :    F;
  BF9   :    F;
  BFA   :    F;
  BFB   :    F;
  BFC   :    F;
  BFD   :    F;
  BFE   :    F;
  BFF   :    F;
  C00   :    F;
  C01   :    F;
  C02   :    F;
  C03   :    F;
  C04   :    F;
  C05   :    F;
  C06   :    F;
  C07   :    F;
  C08   :    F;
  C09   :    F;
  C0A   :    F;
  C0B   :    F;
  C0C   :    F;
  C0D   :    F;
  C0E   :    F;
  C0F   :    F;
  C10   :    F;
  C11   :    F;
  C12   :    F;
  C13   :    F;
  C14   :    F;
  C15   :    F;
  C16   :    F;
  C17   :    F;
  C18   :    F;
  C19   :    F;
  C1A   :    F;
  C1B   :    F;
  C1C   :    F;
  C1D   :    F;
  C1E   :    F;
  C1F   :    F;
  C20   :    F;
  C21   :    F;
  C22   :    F;
  C23   :    F;
  C24   :    F;
  C25   :    F;
  C26   :    F;
  C27   :    F;
  C28   :    F;
  C29   :    F;
  C2A   :    F;
  C2B   :    F;
  C2C   :    F;
  C2D   :    F;
  C2E   :    F;
  C2F   :    F;
  C30   :    F;
  C31   :    F;
  C32   :    F;
  C33   :    F;
  C34   :    F;
  C35   :    F;
  C36   :    F;
  C37   :    F;
  C38   :    F;
  C39   :    F;
  C3A   :    F;
  C3B   :    F;
  C3C   :    F;
  C3D   :    F;
  C3E   :    F;
  C3F   :    F;
  C40   :    F;
  C41   :    F;
  C42   :    F;
  C43   :    F;
  C44   :    F;
  C45   :    F;
  C46   :    F;
  C47   :    F;
  C48   :    F;
  C49   :    F;
  C4A   :    F;
  C4B   :    F;
  C4C   :    F;
  C4D   :    F;
  C4E   :    F;
  C4F   :    F;
  C50   :    F;
  C51   :    F;
  C52   :    F;
  C53   :    F;
  C54   :    F;
  C55   :    F;
  C56   :    F;
  C57   :    F;
  C58   :    F;
  C59   :    F;
  C5A   :    F;
  C5B   :    F;
  C5C   :    F;
  C5D   :    F;
  C5E   :    F;
  C5F   :    F;
  C60   :    F;
  C61   :    F;
  C62   :    F;
  C63   :    F;
  C64   :    F;
  C65   :    F;
  C66   :    F;
  C67   :    F;
  C68   :    F;
  C69   :    F;
  C6A   :    F;
  C6B   :    F;
  C6C   :    F;
  C6D   :    F;
  C6E   :    F;
  C6F   :    F;
  C70   :    F;
  C71   :    F;
  C72   :    F;
  C73   :    F;
  C74   :    F;
  C75   :    F;
  C76   :    F;
  C77   :    F;
  C78   :    F;
  C79   :    F;
  C7A   :    F;
  C7B   :    F;
  C7C   :    F;
  C7D   :    F;
  C7E   :    F;
  C7F   :    F;
  C80   :    F;
  C81   :    F;
  C82   :    F;
  C83   :    F;
  C84   :    F;
  C85   :    F;
  C86   :    F;
  C87   :    F;
  C88   :    F;
  C89   :    F;
  C8A   :    F;
  C8B   :    F;
  C8C   :    F;
  C8D   :    F;
  C8E   :    F;
  C8F   :    F;
  C90   :    F;
  C91   :    F;
  C92   :    F;
  C93   :    F;
  C94   :    F;
  C95   :    F;
  C96   :    F;
  C97   :    F;
  C98   :    F;
  C99   :    F;
  C9A   :    F;
  C9B   :    F;
  C9C   :    F;
  C9D   :    F;
  C9E   :    F;
  C9F   :    F;
  CA0   :    F;
  CA1   :    F;
  CA2   :    F;
  CA3   :    F;
  CA4   :    F;
  CA5   :    F;
  CA6   :    F;
  CA7   :    F;
  CA8   :    F;
  CA9   :    F;
  CAA   :    F;
  CAB   :    F;
  CAC   :    F;
  CAD   :    F;
  CAE   :    F;
  CAF   :    F;
  CB0   :    F;
  CB1   :    F;
  CB2   :    F;
  CB3   :    F;
  CB4   :    F;
  CB5   :    F;
  CB6   :    F;
  CB7   :    F;
  CB8   :    F;
  CB9   :    F;
  CBA   :    F;
  CBB   :    F;
  CBC   :    F;
  CBD   :    F;
  CBE   :    F;
  CBF   :    F;
  CC0   :    F;
  CC1   :    F;
  CC2   :    F;
  CC3   :    F;
  CC4   :    F;
  CC5   :    F;
  CC6   :    F;
  CC7   :    F;
  CC8   :    F;
  CC9   :    F;
  CCA   :    F;
  CCB   :    F;
  CCC   :    F;
  CCD   :    F;
  CCE   :    F;
  CCF   :    F;
  CD0   :    F;
  CD1   :    F;
  CD2   :    F;
  CD3   :    F;
  CD4   :    F;
  CD5   :    F;
  CD6   :    F;
  CD7   :    F;
  CD8   :    F;
  CD9   :    F;
  CDA   :    F;
  CDB   :    F;
  CDC   :    F;
  CDD   :    F;
  CDE   :    F;
  CDF   :    F;
  CE0   :    F;
  CE1   :    F;
  CE2   :    F;
  CE3   :    F;
  CE4   :    F;
  CE5   :    F;
  CE6   :    F;
  CE7   :    F;
  CE8   :    F;
  CE9   :    F;
  CEA   :    F;
  CEB   :    F;
  CEC   :    F;
  CED   :    F;
  CEE   :    F;
  CEF   :    F;
  CF0   :    F;
  CF1   :    F;
  CF2   :    F;
  CF3   :    F;
  CF4   :    F;
  CF5   :    F;
  CF6   :    F;
  CF7   :    F;
  CF8   :    F;
  CF9   :    F;
  CFA   :    F;
  CFB   :    F;
  CFC   :    F;
  CFD   :    F;
  CFE   :    F;
  CFF   :    F;
  D00   :    F;
  D01   :    F;
  D02   :    F;
  D03   :    F;
  D04   :    F;
  D05   :    F;
  D06   :    F;
  D07   :    F;
  D08   :    F;
  D09   :    F;
  D0A   :    F;
  D0B   :    F;
  D0C   :    F;
  D0D   :    F;
  D0E   :    F;
  D0F   :    F;
  D10   :    F;
  D11   :    F;
  D12   :    F;
  D13   :    F;
  D14   :    F;
  D15   :    F;
  D16   :    F;
  D17   :    F;
  D18   :    F;
  D19   :    F;
  D1A   :    F;
  D1B   :    F;
  D1C   :    F;
  D1D   :    F;
  D1E   :    F;
  D1F   :    F;
  D20   :    F;
  D21   :    F;
  D22   :    F;
  D23   :    F;
  D24   :    F;
  D25   :    F;
  D26   :    F;
  D27   :    F;
  D28   :    F;
  D29   :    F;
  D2A   :    F;
  D2B   :    F;
  D2C   :    F;
  D2D   :    F;
  D2E   :    F;
  D2F   :    F;
  D30   :    F;
  D31   :    F;
  D32   :    F;
  D33   :    F;
  D34   :    F;
  D35   :    F;
  D36   :    F;
  D37   :    F;
  D38   :    F;
  D39   :    F;
  D3A   :    F;
  D3B   :    F;
  D3C   :    F;
  D3D   :    F;
  D3E   :    F;
  D3F   :    F;
  D40   :    F;
  D41   :    F;
  D42   :    F;
  D43   :    F;
  D44   :    F;
  D45   :    F;
  D46   :    F;
  D47   :    F;
  D48   :    F;
  D49   :    F;
  D4A   :    F;
  D4B   :    F;
  D4C   :    F;
  D4D   :    F;
  D4E   :    F;
  D4F   :    F;
  D50   :    F;
  D51   :    F;
  D52   :    F;
  D53   :    F;
  D54   :    F;
  D55   :    F;
  D56   :    F;
  D57   :    F;
  D58   :    F;
  D59   :    F;
  D5A   :    F;
  D5B   :    F;
  D5C   :    F;
  D5D   :    F;
  D5E   :    F;
  D5F   :    F;
  D60   :    F;
  D61   :    F;
  D62   :    F;
  D63   :    F;
  D64   :    F;
  D65   :    F;
  D66   :    F;
  D67   :    F;
  D68   :    F;
  D69   :    F;
  D6A   :    F;
  D6B   :    F;
  D6C   :    F;
  D6D   :    F;
  D6E   :    F;
  D6F   :    F;
  D70   :    F;
  D71   :    F;
  D72   :    F;
  D73   :    F;
  D74   :    F;
  D75   :    F;
  D76   :    F;
  D77   :    F;
  D78   :    F;
  D79   :    F;
  D7A   :    F;
  D7B   :    F;
  D7C   :    F;
  D7D   :    F;
  D7E   :    F;
  D7F   :    F;
  D80   :    F;
  D81   :    F;
  D82   :    F;
  D83   :    F;
  D84   :    F;
  D85   :    F;
  D86   :    F;
  D87   :    F;
  D88   :    F;
  D89   :    F;
  D8A   :    F;
  D8B   :    F;
  D8C   :    F;
  D8D   :    F;
  D8E   :    F;
  D8F   :    F;
  D90   :    F;
  D91   :    F;
  D92   :    F;
  D93   :    F;
  D94   :    F;
  D95   :    F;
  D96   :    F;
  D97   :    F;
  D98   :    F;
  D99   :    F;
  D9A   :    F;
  D9B   :    F;
  D9C   :    F;
  D9D   :    F;
  D9E   :    F;
  D9F   :    F;
  DA0   :    F;
  DA1   :    F;
  DA2   :    F;
  DA3   :    F;
  DA4   :    F;
  DA5   :    F;
  DA6   :    F;
  DA7   :    F;
  DA8   :    F;
  DA9   :    F;
  DAA   :    F;
  DAB   :    F;
  DAC   :    F;
  DAD   :    F;
  DAE   :    F;
  DAF   :    F;
  DB0   :    F;
  DB1   :    F;
  DB2   :    F;
  DB3   :    F;
  DB4   :    F;
  DB5   :    F;
  DB6   :    F;
  DB7   :    F;
  DB8   :    F;
  DB9   :    F;
  DBA   :    F;
  DBB   :    F;
  DBC   :    F;
  DBD   :    F;
  DBE   :    F;
  DBF   :    F;
  DC0   :    F;
  DC1   :    F;
  DC2   :    F;
  DC3   :    F;
  DC4   :    F;
  DC5   :    F;
  DC6   :    F;
  DC7   :    F;
  DC8   :    F;
  DC9   :    F;
  DCA   :    F;
  DCB   :    F;
  DCC   :    F;
  DCD   :    F;
  DCE   :    F;
  DCF   :    F;
  DD0   :    F;
  DD1   :    F;
  DD2   :    F;
  DD3   :    F;
  DD4   :    F;
  DD5   :    F;
  DD6   :    F;
  DD7   :    F;
  DD8   :    F;
  DD9   :    F;
  DDA   :    F;
  DDB   :    F;
  DDC   :    F;
  DDD   :    F;
  DDE   :    F;
  DDF   :    F;
  DE0   :    F;
  DE1   :    F;
  DE2   :    F;
  DE3   :    F;
  DE4   :    F;
  DE5   :    F;
  DE6   :    F;
  DE7   :    F;
  DE8   :    F;
  DE9   :    F;
  DEA   :    F;
  DEB   :    F;
  DEC   :    F;
  DED   :    F;
  DEE   :    F;
  DEF   :    F;
  DF0   :    F;
  DF1   :    F;
  DF2   :    F;
  DF3   :    F;
  DF4   :    F;
  DF5   :    F;
  DF6   :    F;
  DF7   :    F;
  DF8   :    F;
  DF9   :    F;
  DFA   :    F;
  DFB   :    F;
  DFC   :    F;
  DFD   :    F;
  DFE   :    F;
  DFF   :    F;
  E00   :    F;
  E01   :    F;
  E02   :    F;
  E03   :    F;
  E04   :    F;
  E05   :    F;
  E06   :    F;
  E07   :    F;
  E08   :    F;
  E09   :    F;
  E0A   :    F;
  E0B   :    F;
  E0C   :    F;
  E0D   :    F;
  E0E   :    F;
  E0F   :    F;
  E10   :    F;
  E11   :    F;
  E12   :    F;
  E13   :    F;
  E14   :    F;
  E15   :    F;
  E16   :    F;
  E17   :    F;
  E18   :    F;
  E19   :    F;
  E1A   :    F;
  E1B   :    F;
  E1C   :    F;
  E1D   :    F;
  E1E   :    F;
  E1F   :    F;
  E20   :    F;
  E21   :    F;
  E22   :    F;
  E23   :    F;
  E24   :    F;
  E25   :    F;
  E26   :    F;
  E27   :    F;
  E28   :    F;
  E29   :    F;
  E2A   :    F;
  E2B   :    F;
  E2C   :    F;
  E2D   :    F;
  E2E   :    F;
  E2F   :    F;
  E30   :    F;
  E31   :    F;
  E32   :    F;
  E33   :    F;
  E34   :    F;
  E35   :    F;
  E36   :    F;
  E37   :    F;
  E38   :    F;
  E39   :    F;
  E3A   :    F;
  E3B   :    F;
  E3C   :    F;
  E3D   :    F;
  E3E   :    F;
  E3F   :    F;
  E40   :    F;
  E41   :    F;
  E42   :    F;
  E43   :    F;
  E44   :    F;
  E45   :    F;
  E46   :    F;
  E47   :    F;
  E48   :    F;
  E49   :    F;
  E4A   :    F;
  E4B   :    F;
  E4C   :    F;
  E4D   :    F;
  E4E   :    F;
  E4F   :    F;
  E50   :    F;
  E51   :    F;
  E52   :    F;
  E53   :    F;
  E54   :    F;
  E55   :    F;
  E56   :    F;
  E57   :    F;
  E58   :    F;
  E59   :    F;
  E5A   :    F;
  E5B   :    F;
  E5C   :    F;
  E5D   :    F;
  E5E   :    F;
  E5F   :    F;
  E60   :    F;
  E61   :    F;
  E62   :    F;
  E63   :    F;
  E64   :    F;
  E65   :    F;
  E66   :    F;
  E67   :    F;
  E68   :    F;
  E69   :    F;
  E6A   :    F;
  E6B   :    F;
  E6C   :    F;
  E6D   :    F;
  E6E   :    F;
  E6F   :    F;
  E70   :    F;
  E71   :    F;
  E72   :    F;
  E73   :    F;
  E74   :    F;
  E75   :    F;
  E76   :    F;
  E77   :    F;
  E78   :    F;
  E79   :    F;
  E7A   :    F;
  E7B   :    F;
  E7C   :    F;
  E7D   :    F;
  E7E   :    F;
  E7F   :    F;
  E80   :    F;
  E81   :    F;
  E82   :    F;
  E83   :    F;
  E84   :    F;
  E85   :    F;
  E86   :    F;
  E87   :    F;
  E88   :    F;
  E89   :    F;
  E8A   :    F;
  E8B   :    F;
  E8C   :    F;
  E8D   :    F;
  E8E   :    F;
  E8F   :    F;
  E90   :    F;
  E91   :    F;
  E92   :    F;
  E93   :    F;
  E94   :    F;
  E95   :    F;
  E96   :    F;
  E97   :    F;
  E98   :    F;
  E99   :    F;
  E9A   :    F;
  E9B   :    F;
  E9C   :    F;
  E9D   :    F;
  E9E   :    F;
  E9F   :    F;
  EA0   :    F;
  EA1   :    F;
  EA2   :    F;
  EA3   :    F;
  EA4   :    F;
  EA5   :    F;
  EA6   :    F;
  EA7   :    F;
  EA8   :    F;
  EA9   :    F;
  EAA   :    F;
  EAB   :    F;
  EAC   :    F;
  EAD   :    F;
  EAE   :    F;
  EAF   :    F;
  EB0   :    F;
  EB1   :    F;
  EB2   :    F;
  EB3   :    F;
  EB4   :    F;
  EB5   :    F;
  EB6   :    F;
  EB7   :    F;
  EB8   :    F;
  EB9   :    F;
  EBA   :    F;
  EBB   :    F;
  EBC   :    F;
  EBD   :    F;
  EBE   :    F;
  EBF   :    F;
  EC0   :    F;
  EC1   :    F;
  EC2   :    F;
  EC3   :    F;
  EC4   :    F;
  EC5   :    F;
  EC6   :    F;
  EC7   :    F;
  EC8   :    F;
  EC9   :    F;
  ECA   :    F;
  ECB   :    F;
  ECC   :    F;
  ECD   :    F;
  ECE   :    F;
  ECF   :    F;
  ED0   :    F;
  ED1   :    F;
  ED2   :    F;
  ED3   :    F;
  ED4   :    F;
  ED5   :    F;
  ED6   :    F;
  ED7   :    F;
  ED8   :    F;
  ED9   :    F;
  EDA   :    F;
  EDB   :    F;
  EDC   :    F;
  EDD   :    F;
  EDE   :    F;
  EDF   :    F;
  EE0   :    F;
  EE1   :    F;
  EE2   :    F;
  EE3   :    F;
  EE4   :    F;
  EE5   :    F;
  EE6   :    F;
  EE7   :    F;
  EE8   :    F;
  EE9   :    F;
  EEA   :    F;
  EEB   :    F;
  EEC   :    F;
  EED   :    F;
  EEE   :    F;
  EEF   :    F;
  EF0   :    F;
  EF1   :    F;
  EF2   :    F;
  EF3   :    F;
  EF4   :    F;
  EF5   :    F;
  EF6   :    F;
  EF7   :    F;
  EF8   :    F;
  EF9   :    F;
  EFA   :    F;
  EFB   :    F;
  EFC   :    F;
  EFD   :    F;
  EFE   :    F;
  EFF   :    F;
  F00   :    F;
  F01   :    F;
  F02   :    F;
  F03   :    F;
  F04   :    F;
  F05   :    F;
  F06   :    F;
  F07   :    F;
  F08   :    F;
  F09   :    F;
  F0A   :    F;
  F0B   :    F;
  F0C   :    F;
  F0D   :    F;
  F0E   :    F;
  F0F   :    F;
  F10   :    F;
  F11   :    F;
  F12   :    F;
  F13   :    F;
  F14   :    F;
  F15   :    F;
  F16   :    F;
  F17   :    F;
  F18   :    F;
  F19   :    F;
  F1A   :    F;
  F1B   :    F;
  F1C   :    F;
  F1D   :    F;
  F1E   :    F;
  F1F   :    F;
  F20   :    F;
  F21   :    F;
  F22   :    F;
  F23   :    F;
  F24   :    F;
  F25   :    F;
  F26   :    F;
  F27   :    F;
  F28   :    F;
  F29   :    F;
  F2A   :    F;
  F2B   :    F;
  F2C   :    F;
  F2D   :    F;
  F2E   :    F;
  F2F   :    F;
  F30   :    F;
  F31   :    F;
  F32   :    F;
  F33   :    F;
  F34   :    F;
  F35   :    F;
  F36   :    F;
  F37   :    F;
  F38   :    F;
  F39   :    F;
  F3A   :    F;
  F3B   :    F;
  F3C   :    F;
  F3D   :    F;
  F3E   :    F;
  F3F   :    F;
  F40   :    F;
  F41   :    F;
  F42   :    F;
  F43   :    F;
  F44   :    F;
  F45   :    F;
  F46   :    F;
  F47   :    F;
  F48   :    F;
  F49   :    F;
  F4A   :    F;
  F4B   :    F;
  F4C   :    F;
  F4D   :    F;
  F4E   :    F;
  F4F   :    F;
  F50   :    F;
  F51   :    F;
  F52   :    F;
  F53   :    F;
  F54   :    F;
  F55   :    F;
  F56   :    F;
  F57   :    F;
  F58   :    F;
  F59   :    F;
  F5A   :    F;
  F5B   :    F;
  F5C   :    F;
  F5D   :    F;
  F5E   :    F;
  F5F   :    F;
  F60   :    F;
  F61   :    F;
  F62   :    F;
  F63   :    F;
  F64   :    F;
  F65   :    F;
  F66   :    F;
  F67   :    F;
  F68   :    F;
  F69   :    F;
  F6A   :    F;
  F6B   :    F;
  F6C   :    F;
  F6D   :    F;
  F6E   :    F;
  F6F   :    F;
  F70   :    F;
  F71   :    F;
  F72   :    F;
  F73   :    F;
  F74   :    F;
  F75   :    F;
  F76   :    F;
  F77   :    F;
  F78   :    F;
  F79   :    F;
  F7A   :    F;
  F7B   :    F;
  F7C   :    F;
  F7D   :    F;
  F7E   :    F;
  F7F   :    F;
  F80   :    F;
  F81   :    F;
  F82   :    F;
  F83   :    F;
  F84   :    F;
  F85   :    F;
  F86   :    F;
  F87   :    F;
  F88   :    F;
  F89   :    F;
  F8A   :    F;
  F8B   :    F;
  F8C   :    F;
  F8D   :    F;
  F8E   :    F;
  F8F   :    F;
  F90   :    F;
  F91   :    F;
  F92   :    F;
  F93   :    F;
  F94   :    F;
  F95   :    F;
  F96   :    F;
  F97   :    F;
  F98   :    F;
  F99   :    F;
  F9A   :    F;
  F9B   :    F;
  F9C   :    F;
  F9D   :    F;
  F9E   :    F;
  F9F   :    F;
  FA0   :    F;
  FA1   :    F;
  FA2   :    F;
  FA3   :    F;
  FA4   :    F;
  FA5   :    F;
  FA6   :    F;
  FA7   :    F;
  FA8   :    F;
  FA9   :    F;
  FAA   :    F;
  FAB   :    F;
  FAC   :    F;
  FAD   :    F;
  FAE   :    F;
  FAF   :    F;
  FB0   :    F;
  FB1   :    F;
  FB2   :    F;
  FB3   :    F;
  FB4   :    F;
  FB5   :    F;
  FB6   :    F;
  FB7   :    F;
  FB8   :    F;
  FB9   :    F;
  FBA   :    F;
  FBB   :    F;
  FBC   :    F;
  FBD   :    F;
  FBE   :    F;
  FBF   :    F;
  FC0   :    F;
  FC1   :    F;
  FC2   :    F;
  FC3   :    F;
  FC4   :    F;
  FC5   :    F;
  FC6   :    F;
  FC7   :    F;
  FC8   :    F;
  FC9   :    F;
  FCA   :    F;
  FCB   :    F;
  FCC   :    F;
  FCD   :    F;
  FCE   :    F;
  FCF   :    F;
  FD0   :    F;
  FD1   :    F;
  FD2   :    F;
  FD3   :    F;
  FD4   :    F;
  FD5   :    F;
  FD6   :    F;
  FD7   :    F;
  FD8   :    F;
  FD9   :    F;
  FDA   :    F;
  FDB   :    F;
  FDC   :    F;
  FDD   :    F;
  FDE   :    F;
  FDF   :    F;
  FE0   :    F;
  FE1   :    F;
  FE2   :    F;
  FE3   :    F;
  FE4   :    F;
  FE5   :    F;
  FE6   :    F;
  FE7   :    F;
  FE8   :    F;
  FE9   :    F;
  FEA   :    F;
  FEB   :    F;
  FEC   :    F;
  FED   :    F;
  FEE   :    F;
  FEF   :    F;
  FF0   :    F;
  FF1   :    F;
  FF2   :    F;
  FF3   :    F;
  FF4   :    F;
  FF5   :    F;
  FF6   :    F;
  FF7   :    F;
  FF8   :    F;
  FF9   :    F;
  FFA   :    F;
  FFB   :    F;
  FFC   :    F;
  FFD   :    F;
  FFE   :    F;
  FFF   :    F;
 1000   :    F;
 1001   :    F;
 1002   :    F;
 1003   :    F;
 1004   :    F;
 1005   :    F;
 1006   :    F;
 1007   :    F;
 1008   :    F;
 1009   :    F;
 100A   :    F;
 100B   :    F;
 100C   :    F;
 100D   :    F;
 100E   :    F;
 100F   :    F;
 1010   :    F;
 1011   :    F;
 1012   :    F;
 1013   :    F;
 1014   :    F;
 1015   :    F;
 1016   :    F;
 1017   :    F;
 1018   :    F;
 1019   :    F;
 101A   :    F;
 101B   :    F;
 101C   :    F;
 101D   :    F;
 101E   :    F;
 101F   :    F;
 1020   :    F;
 1021   :    F;
 1022   :    F;
 1023   :    F;
 1024   :    F;
 1025   :    F;
 1026   :    F;
 1027   :    F;
 1028   :    F;
 1029   :    F;
 102A   :    F;
 102B   :    F;
 102C   :    F;
 102D   :    F;
 102E   :    F;
 102F   :    F;
 1030   :    F;
 1031   :    F;
 1032   :    F;
 1033   :    F;
 1034   :    F;
 1035   :    F;
 1036   :    F;
 1037   :    F;
 1038   :    F;
 1039   :    F;
 103A   :    F;
 103B   :    F;
 103C   :    F;
 103D   :    F;
 103E   :    F;
 103F   :    F;
 1040   :    F;
 1041   :    F;
 1042   :    F;
 1043   :    F;
 1044   :    F;
 1045   :    F;
 1046   :    F;
 1047   :    F;
 1048   :    F;
 1049   :    F;
 104A   :    F;
 104B   :    F;
 104C   :    F;
 104D   :    F;
 104E   :    F;
 104F   :    F;
 1050   :    F;
 1051   :    F;
 1052   :    F;
 1053   :    F;
 1054   :    F;
 1055   :    F;
 1056   :    F;
 1057   :    F;
 1058   :    F;
 1059   :    F;
 105A   :    F;
 105B   :    F;
 105C   :    F;
 105D   :    F;
 105E   :    F;
 105F   :    F;
 1060   :    F;
 1061   :    F;
 1062   :    F;
 1063   :    F;
 1064   :    F;
 1065   :    F;
 1066   :    F;
 1067   :    F;
 1068   :    F;
 1069   :    F;
 106A   :    F;
 106B   :    F;
 106C   :    F;
 106D   :    F;
 106E   :    F;
 106F   :    F;
 1070   :    F;
 1071   :    F;
 1072   :    F;
 1073   :    F;
 1074   :    F;
 1075   :    F;
 1076   :    F;
 1077   :    F;
 1078   :    F;
 1079   :    F;
 107A   :    F;
 107B   :    F;
 107C   :    F;
 107D   :    F;
 107E   :    F;
 107F   :    F;
 1080   :    F;
 1081   :    F;
 1082   :    F;
 1083   :    F;
 1084   :    F;
 1085   :    F;
 1086   :    F;
 1087   :    F;
 1088   :    F;
 1089   :    F;
 108A   :    F;
 108B   :    F;
 108C   :    F;
 108D   :    F;
 108E   :    F;
 108F   :    F;
 1090   :    F;
 1091   :    F;
 1092   :    F;
 1093   :    F;
 1094   :    F;
 1095   :    F;
 1096   :    F;
 1097   :    F;
 1098   :    F;
 1099   :    F;
 109A   :    F;
 109B   :    F;
 109C   :    F;
 109D   :    F;
 109E   :    F;
 109F   :    F;
 10A0   :    F;
 10A1   :    F;
 10A2   :    F;
 10A3   :    F;
 10A4   :    F;
 10A5   :    F;
 10A6   :    F;
 10A7   :    F;
 10A8   :    F;
 10A9   :    F;
 10AA   :    F;
 10AB   :    F;
 10AC   :    F;
 10AD   :    F;
 10AE   :    F;
 10AF   :    F;
 10B0   :    F;
 10B1   :    F;
 10B2   :    F;
 10B3   :    F;
 10B4   :    F;
 10B5   :    F;
 10B6   :    F;
 10B7   :    F;
 10B8   :    F;
 10B9   :    F;
 10BA   :    F;
 10BB   :    F;
 10BC   :    F;
 10BD   :    F;
 10BE   :    F;
 10BF   :    F;
 10C0   :    F;
 10C1   :    F;
 10C2   :    F;
 10C3   :    F;
 10C4   :    F;
 10C5   :    F;
 10C6   :    F;
 10C7   :    F;
 10C8   :    F;
 10C9   :    F;
 10CA   :    F;
 10CB   :    F;
 10CC   :    F;
 10CD   :    F;
 10CE   :    F;
 10CF   :    F;
 10D0   :    F;
 10D1   :    F;
 10D2   :    F;
 10D3   :    F;
 10D4   :    F;
 10D5   :    F;
 10D6   :    F;
 10D7   :    F;
 10D8   :    F;
 10D9   :    F;
 10DA   :    F;
 10DB   :    F;
 10DC   :    F;
 10DD   :    F;
 10DE   :    F;
 10DF   :    F;
 10E0   :    F;
 10E1   :    F;
 10E2   :    F;
 10E3   :    F;
 10E4   :    F;
 10E5   :    F;
 10E6   :    F;
 10E7   :    F;
 10E8   :    F;
 10E9   :    F;
 10EA   :    F;
 10EB   :    F;
 10EC   :    F;
 10ED   :    F;
 10EE   :    F;
 10EF   :    F;
 10F0   :    F;
 10F1   :    F;
 10F2   :    F;
 10F3   :    F;
 10F4   :    F;
 10F5   :    F;
 10F6   :    F;
 10F7   :    F;
 10F8   :    F;
 10F9   :    F;
 10FA   :    F;
 10FB   :    F;
 10FC   :    F;
 10FD   :    F;
 10FE   :    F;
 10FF   :    F;
 1100   :    F;
 1101   :    F;
 1102   :    F;
 1103   :    F;
 1104   :    F;
 1105   :    F;
 1106   :    F;
 1107   :    F;
 1108   :    F;
 1109   :    F;
 110A   :    F;
 110B   :    F;
 110C   :    F;
 110D   :    F;
 110E   :    F;
 110F   :    F;
 1110   :    F;
 1111   :    F;
 1112   :    F;
 1113   :    F;
 1114   :    F;
 1115   :    F;
 1116   :    F;
 1117   :    F;
 1118   :    F;
 1119   :    F;
 111A   :    F;
 111B   :    F;
 111C   :    F;
 111D   :    F;
 111E   :    F;
 111F   :    F;
 1120   :    F;
 1121   :    F;
 1122   :    F;
 1123   :    F;
 1124   :    F;
 1125   :    F;
 1126   :    F;
 1127   :    F;
 1128   :    F;
 1129   :    F;
 112A   :    F;
 112B   :    F;
 112C   :    F;
 112D   :    F;
 112E   :    F;
 112F   :    F;
 1130   :    F;
 1131   :    F;
 1132   :    F;
 1133   :    F;
 1134   :    F;
 1135   :    F;
 1136   :    F;
 1137   :    F;
 1138   :    F;
 1139   :    F;
 113A   :    F;
 113B   :    F;
 113C   :    F;
 113D   :    F;
 113E   :    F;
 113F   :    F;
 1140   :    F;
 1141   :    F;
 1142   :    F;
 1143   :    F;
 1144   :    F;
 1145   :    F;
 1146   :    F;
 1147   :    F;
 1148   :    F;
 1149   :    F;
 114A   :    F;
 114B   :    F;
 114C   :    F;
 114D   :    F;
 114E   :    F;
 114F   :    F;
 1150   :    F;
 1151   :    F;
 1152   :    F;
 1153   :    F;
 1154   :    F;
 1155   :    F;
 1156   :    F;
 1157   :    F;
 1158   :    F;
 1159   :    F;
 115A   :    F;
 115B   :    F;
 115C   :    F;
 115D   :    F;
 115E   :    F;
 115F   :    F;
 1160   :    F;
 1161   :    F;
 1162   :    F;
 1163   :    F;
 1164   :    F;
 1165   :    F;
 1166   :    F;
 1167   :    F;
 1168   :    F;
 1169   :    F;
 116A   :    F;
 116B   :    F;
 116C   :    F;
 116D   :    F;
 116E   :    F;
 116F   :    F;
 1170   :    F;
 1171   :    F;
 1172   :    F;
 1173   :    F;
 1174   :    F;
 1175   :    F;
 1176   :    F;
 1177   :    F;
 1178   :    F;
 1179   :    F;
 117A   :    F;
 117B   :    F;
 117C   :    F;
 117D   :    F;
 117E   :    F;
 117F   :    F;
 1180   :    F;
 1181   :    F;
 1182   :    F;
 1183   :    F;
 1184   :    F;
 1185   :    F;
 1186   :    F;
 1187   :    F;
 1188   :    F;
 1189   :    F;
 118A   :    F;
 118B   :    F;
 118C   :    F;
 118D   :    F;
 118E   :    F;
 118F   :    F;
 1190   :    F;
 1191   :    F;
 1192   :    F;
 1193   :    F;
 1194   :    F;
 1195   :    F;
 1196   :    F;
 1197   :    F;
 1198   :    F;
 1199   :    F;
 119A   :    F;
 119B   :    F;
 119C   :    F;
 119D   :    F;
 119E   :    F;
 119F   :    F;
 11A0   :    F;
 11A1   :    F;
 11A2   :    F;
 11A3   :    F;
 11A4   :    F;
 11A5   :    F;
 11A6   :    F;
 11A7   :    F;
 11A8   :    F;
 11A9   :    F;
 11AA   :    F;
 11AB   :    F;
 11AC   :    F;
 11AD   :    F;
 11AE   :    F;
 11AF   :    F;
 11B0   :    F;
 11B1   :    F;
 11B2   :    F;
 11B3   :    F;
 11B4   :    F;
 11B5   :    F;
 11B6   :    F;
 11B7   :    F;
 11B8   :    F;
 11B9   :    F;
 11BA   :    F;
 11BB   :    F;
 11BC   :    F;
 11BD   :    F;
 11BE   :    F;
 11BF   :    F;
 11C0   :    F;
 11C1   :    F;
 11C2   :    F;
 11C3   :    F;
 11C4   :    F;
 11C5   :    F;
 11C6   :    F;
 11C7   :    F;
 11C8   :    F;
 11C9   :    F;
 11CA   :    F;
 11CB   :    F;
 11CC   :    F;
 11CD   :    F;
 11CE   :    F;
 11CF   :    F;
 11D0   :    F;
 11D1   :    F;
 11D2   :    F;
 11D3   :    F;
 11D4   :    F;
 11D5   :    F;
 11D6   :    F;
 11D7   :    F;
 11D8   :    F;
 11D9   :    F;
 11DA   :    F;
 11DB   :    F;
 11DC   :    F;
 11DD   :    F;
 11DE   :    F;
 11DF   :    F;
 11E0   :    F;
 11E1   :    F;
 11E2   :    F;
 11E3   :    F;
 11E4   :    F;
 11E5   :    F;
 11E6   :    F;
 11E7   :    F;
 11E8   :    F;
 11E9   :    F;
 11EA   :    F;
 11EB   :    F;
 11EC   :    F;
 11ED   :    F;
 11EE   :    F;
 11EF   :    F;
 11F0   :    F;
 11F1   :    F;
 11F2   :    F;
 11F3   :    F;
 11F4   :    F;
 11F5   :    F;
 11F6   :    F;
 11F7   :    F;
 11F8   :    F;
 11F9   :    F;
 11FA   :    F;
 11FB   :    F;
 11FC   :    F;
 11FD   :    F;
 11FE   :    F;
 11FF   :    F;
 1200   :    F;
 1201   :    F;
 1202   :    F;
 1203   :    F;
 1204   :    F;
 1205   :    F;
 1206   :    F;
 1207   :    F;
 1208   :    F;
 1209   :    F;
 120A   :    F;
 120B   :    F;
 120C   :    F;
 120D   :    F;
 120E   :    F;
 120F   :    F;
 1210   :    F;
 1211   :    F;
 1212   :    F;
 1213   :    F;
 1214   :    F;
 1215   :    F;
 1216   :    F;
 1217   :    F;
 1218   :    F;
 1219   :    F;
 121A   :    F;
 121B   :    F;
 121C   :    F;
 121D   :    F;
 121E   :    F;
 121F   :    F;
 1220   :    F;
 1221   :    F;
 1222   :    F;
 1223   :    F;
 1224   :    F;
 1225   :    F;
 1226   :    F;
 1227   :    F;
 1228   :    F;
 1229   :    F;
 122A   :    F;
 122B   :    F;
 122C   :    F;
 122D   :    F;
 122E   :    F;
 122F   :    F;
 1230   :    F;
 1231   :    F;
 1232   :    F;
 1233   :    F;
 1234   :    F;
 1235   :    F;
 1236   :    F;
 1237   :    F;
 1238   :    F;
 1239   :    F;
 123A   :    F;
 123B   :    F;
 123C   :    F;
 123D   :    F;
 123E   :    F;
 123F   :    F;
 1240   :    F;
 1241   :    F;
 1242   :    F;
 1243   :    F;
 1244   :    F;
 1245   :    F;
 1246   :    F;
 1247   :    F;
 1248   :    F;
 1249   :    F;
 124A   :    F;
 124B   :    F;
 124C   :    F;
 124D   :    F;
 124E   :    F;
 124F   :    F;
 1250   :    F;
 1251   :    F;
 1252   :    F;
 1253   :    F;
 1254   :    F;
 1255   :    F;
 1256   :    F;
 1257   :    F;
 1258   :    F;
 1259   :    F;
 125A   :    F;
 125B   :    F;
 125C   :    F;
 125D   :    F;
 125E   :    F;
 125F   :    F;
 1260   :    F;
 1261   :    F;
 1262   :    F;
 1263   :    F;
 1264   :    F;
 1265   :    F;
 1266   :    F;
 1267   :    F;
 1268   :    F;
 1269   :    F;
 126A   :    F;
 126B   :    F;
 126C   :    F;
 126D   :    F;
 126E   :    F;
 126F   :    F;
 1270   :    F;
 1271   :    F;
 1272   :    F;
 1273   :    F;
 1274   :    F;
 1275   :    F;
 1276   :    F;
 1277   :    F;
 1278   :    F;
 1279   :    F;
 127A   :    F;
 127B   :    F;
 127C   :    F;
 127D   :    F;
 127E   :    F;
 127F   :    F;
 1280   :    F;
 1281   :    F;
 1282   :    F;
 1283   :    F;
 1284   :    F;
 1285   :    F;
 1286   :    F;
 1287   :    F;
 1288   :    F;
 1289   :    F;
 128A   :    F;
 128B   :    F;
 128C   :    F;
 128D   :    F;
 128E   :    F;
 128F   :    F;
 1290   :    F;
 1291   :    F;
 1292   :    F;
 1293   :    F;
 1294   :    F;
 1295   :    F;
 1296   :    F;
 1297   :    F;
 1298   :    F;
 1299   :    F;
 129A   :    F;
 129B   :    F;
 129C   :    F;
 129D   :    F;
 129E   :    F;
 129F   :    F;
 12A0   :    F;
 12A1   :    F;
 12A2   :    F;
 12A3   :    F;
 12A4   :    F;
 12A5   :    F;
 12A6   :    F;
 12A7   :    F;
 12A8   :    F;
 12A9   :    F;
 12AA   :    F;
 12AB   :    F;
 12AC   :    F;
 12AD   :    F;
 12AE   :    F;
 12AF   :    F;
 12B0   :    F;
 12B1   :    F;
 12B2   :    F;
 12B3   :    F;
 12B4   :    F;
 12B5   :    F;
 12B6   :    F;
 12B7   :    F;
 12B8   :    F;
 12B9   :    F;
 12BA   :    F;
 12BB   :    F;
 12BC   :    F;
 12BD   :    F;
 12BE   :    F;
 12BF   :    F;
 12C0   :    F;
 12C1   :    F;
 12C2   :    F;
 12C3   :    F;
 12C4   :    F;
 12C5   :    F;
 12C6   :    F;
 12C7   :    F;
 12C8   :    F;
 12C9   :    F;
 12CA   :    F;
 12CB   :    F;
 12CC   :    F;
 12CD   :    F;
 12CE   :    F;
 12CF   :    F;
 12D0   :    F;
 12D1   :    F;
 12D2   :    F;
 12D3   :    F;
 12D4   :    F;
 12D5   :    F;
 12D6   :    F;
 12D7   :    F;
 12D8   :    F;
 12D9   :    F;
 12DA   :    F;
 12DB   :    F;
 12DC   :    F;
 12DD   :    F;
 12DE   :    F;
 12DF   :    F;
 12E0   :    F;
 12E1   :    F;
 12E2   :    F;
 12E3   :    F;
 12E4   :    F;
 12E5   :    F;
 12E6   :    F;
 12E7   :    F;
 12E8   :    F;
 12E9   :    F;
 12EA   :    F;
 12EB   :    F;
 12EC   :    F;
 12ED   :    F;
 12EE   :    F;
 12EF   :    F;
 12F0   :    F;
 12F1   :    F;
 12F2   :    F;
 12F3   :    F;
 12F4   :    F;
 12F5   :    F;
 12F6   :    F;
 12F7   :    F;
 12F8   :    F;
 12F9   :    F;
 12FA   :    F;
 12FB   :    F;
 12FC   :    F;
 12FD   :    F;
 12FE   :    F;
 12FF   :    F;
 1300   :    F;
 1301   :    F;
 1302   :    F;
 1303   :    F;
 1304   :    F;
 1305   :    F;
 1306   :    F;
 1307   :    F;
 1308   :    F;
 1309   :    F;
 130A   :    F;
 130B   :    F;
 130C   :    F;
 130D   :    F;
 130E   :    F;
 130F   :    F;
 1310   :    F;
 1311   :    F;
 1312   :    F;
 1313   :    F;
 1314   :    F;
 1315   :    F;
 1316   :    F;
 1317   :    F;
 1318   :    F;
 1319   :    F;
 131A   :    F;
 131B   :    F;
 131C   :    F;
 131D   :    F;
 131E   :    F;
 131F   :    F;
 1320   :    F;
 1321   :    F;
 1322   :    F;
 1323   :    F;
 1324   :    F;
 1325   :    F;
 1326   :    F;
 1327   :    F;
 1328   :    F;
 1329   :    F;
 132A   :    F;
 132B   :    F;
 132C   :    F;
 132D   :    F;
 132E   :    F;
 132F   :    F;
 1330   :    F;
 1331   :    F;
 1332   :    F;
 1333   :    F;
 1334   :    F;
 1335   :    F;
 1336   :    F;
 1337   :    F;
 1338   :    F;
 1339   :    F;
 133A   :    F;
 133B   :    F;
 133C   :    F;
 133D   :    F;
 133E   :    F;
 133F   :    F;
 1340   :    F;
 1341   :    F;
 1342   :    F;
 1343   :    F;
 1344   :    F;
 1345   :    F;
 1346   :    F;
 1347   :    F;
 1348   :    F;
 1349   :    F;
 134A   :    F;
 134B   :    F;
 134C   :    F;
[...]
 FB1F   :   FF;
 FB20   :   FF;
 FB21   :   FF;
 FB22   :   FF;
 FB23   :   FF;
 FB24   :   FF;
 FB25   :   FF;
 FB26   :   FF;
 FB27   :   FF;
 FB28   :   FF;
 FB29   :   FF;
 FB2A   :   FF;
 FB2B   :   FF;
 FB2C   :   FF;
 FB2D   :   FF;
 FB2E   :   FF;
 FB2F   :   FF;
 FB30   :   FF;
 FB31   :   FF;
 FB32   :   FF;
 FB33   :   FF;
 FB34   :   FF;
 FB35   :   FF;
 FB36   :   FF;
 FB37   :   FF;
 FB38   :   FF;
 FB39   :   FF;
 FB3A   :   FF;
 FB3B   :   FF;
 FB3C   :   FF;
 FB3D   :   FF;
 FB3E   :   FF;
 FB3F   :   FF;
 FB40   :   FF;
 FB41   :   FF;
 FB42   :   FF;
 FB43   :   FF;
 FB44   :   FF;
 FB45   :   FF;
 FB46   :   FF;
 FB47   :   FF;
 FB48   :   FF;
 FB49   :   FF;
 FB4A   :   FF;
 FB4B   :   FF;
 FB4C   :   FF;
 FB4D   :   FF;
 FB4E   :   FF;
 FB4F   :   FF;
 FB50   :   FF;
 FB51   :   FF;
 FB52   :   FF;
 FB53   :   FF;
 FB54   :   FF;
 FB55   :   FF;
 FB56   :   FF;
 FB57   :   FF;
 FB58   :   FF;
 FB59   :   FF;
 FB5A   :   FF;
 FB5B   :   FF;
 FB5C   :   FF;
 FB5D   :   FF;
 FB5E   :   FF;
 FB5F   :   FF;
 FB60   :   FF;
 FB61   :   FF;
 FB62   :   FF;
 FB63   :   FF;
 FB64   :   FF;
 FB65   :   FF;
 FB66   :   FF;
 FB67   :   FF;
 FB68   :   FF;
 FB69   :   FF;
 FB6A   :   FF;
 FB6B   :   FF;
 FB6C   :   FF;
 FB6D   :   FF;
 FB6E   :   FF;
 FB6F   :   FF;
 FB70   :   FF;
 FB71   :   FF;
 FB72   :   FF;
 FB73   :   FF;
 FB74   :   FF;
 FB75   :   FF;
 FB76   :   FF;
 FB77   :   FF;
 FB78   :   FF;
 FB79   :   FF;
 FB7A   :   FF;
 FB7B   :   FF;
 FB7C   :   FF;
 FB7D   :   FF;
 FB7E   :   FF;
 FB7F   :   FF;
 FB80   :   FF;
 FB81   :   FF;
 FB82   :   FF;
 FB83   :   FF;
 FB84   :   FF;
 FB85   :   FF;
 FB86   :   FF;
 FB87   :   FF;
 FB88   :   FF;
 FB89   :   FF;
 FB8A   :   FF;
 FB8B   :   FF;
 FB8C   :   FF;
 FB8D   :   FF;
 FB8E   :   FF;
 FB8F   :   FF;
 FB90   :   FF;
 FB91   :   FF;
 FB92   :   FF;
 FB93   :   FF;
 FB94   :   FF;
 FB95   :   FF;
 FB96   :   FF;
 FB97   :   FF;
 FB98   :   FF;
 FB99   :   FF;
 FB9A   :   FF;
 FB9B   :   FF;
 FB9C   :   FF;
 FB9D   :   FF;
 FB9E   :   FF;
 FB9F   :   FF;
 FBA0   :   FF;
 FBA1   :   FF;
 FBA2   :   FF;
 FBA3   :   FF;
 FBA4   :   FF;
 FBA5   :   FF;
 FBA6   :   FF;
 FBA7   :   FF;
 FBA8   :   FF;
 FBA9   :   FF;
 FBAA   :   FF;
 FBAB   :   FF;
 FBAC   :   FF;
 FBAD   :   FF;
 FBAE   :   FF;
 FBAF   :   FF;
 FBB0   :   FF;
 FBB1   :   FF;
 FBB2   :   FF;
 FBB3   :   FF;
 FBB4   :   FF;
 FBB5   :   FF;
 FBB6   :   FF;
 FBB7   :   FF;
 FBB8   :   FF;
 FBB9   :   FF;
 FBBA   :   FF;
 FBBB   :   FF;
 FBBC   :   FF;
 FBBD   :   FF;
 FBBE   :   FF;
 FBBF   :   FF;
 FBC0   :   FF;
 FBC1   :   FF;
 FBC2   :   FF;
 FBC3   :   FF;
 FBC4   :   FF;
 FBC5   :   FF;
 FBC6   :   FF;
 FBC7   :   FF;
 FBC8   :   FF;
 FBC9   :   FF;
 FBCA   :   FF;
 FBCB   :   FF;
 FBCC   :   FF;
 FBCD   :   FF;
 FBCE   :   FF;
 FBCF   :   FF;
 FBD0   :   FF;
 FBD1   :   FF;
 FBD2   :   FF;
 FBD3   :   FF;
 FBD4   :   FF;
 FBD5   :   FF;
 FBD6   :   FF;
 FBD7   :   FF;
 FBD8   :   FF;
 FBD9   :   FF;
 FBDA   :   FF;
 FBDB   :   FF;
 FBDC   :   FF;
 FBDD   :   FF;
 FBDE   :   FF;
 FBDF   :   FF;
 FBE0   :   FF;
 FBE1   :   FF;
 FBE2   :   FF;
 FBE3   :   FF;
 FBE4   :   FF;
 FBE5   :   FF;
 FBE6   :   FF;
 FBE7   :   FF;
 FBE8   :   FF;
 FBE9   :   FF;
 FBEA   :   FF;
 FBEB   :   FF;
 FBEC   :   FF;
 FBED   :   FF;
 FBEE   :   FF;
 FBEF   :   FF;
 FBF0   :   FF;
 FBF1   :   FF;
 FBF2   :   FF;
 FBF3   :   FF;
 FBF4   :   FF;
 FBF5   :   FF;
 FBF6   :   FF;
 FBF7   :   FF;
 FBF8   :   FF;
 FBF9   :   FF;
 FBFA   :   FF;
 FBFB   :   FF;
 FBFC   :   FF;
 FBFD   :   FF;
 FBFE   :   FF;
 FBFF   :   FF;
 FC00   :   FF;
 FC01   :   FF;
 FC02   :   FF;
 FC03   :   FF;
 FC04   :   FF;
 FC05   :   FF;
 FC06   :   FF;
 FC07   :   FF;
 FC08   :   FF;
 FC09   :   FF;
 FC0A   :   FF;
 FC0B   :   FF;
 FC0C   :   FF;
 FC0D   :   FF;
 FC0E   :   FF;
 FC0F   :   FF;
 FC10   :   FF;
 FC11   :   FF;
 FC12   :   FF;
 FC13   :   FF;
 FC14   :   FF;
 FC15   :   FF;
 FC16   :   FF;
 FC17   :   FF;
 FC18   :   FF;
 FC19   :   FF;
 FC1A   :   FF;
 FC1B   :   FF;
 FC1C   :   FF;
 FC1D   :   FF;
 FC1E   :   FF;
 FC1F   :   FF;
 FC20   :   FF;
 FC21   :   FF;
 FC22   :   FF;
 FC23   :   FF;
 FC24   :   FF;
 FC25   :   FF;
 FC26   :   FF;
 FC27   :   FF;
 FC28   :   FF;
 FC29   :   FF;
 FC2A   :   FF;
 FC2B   :   FF;
 FC2C   :   FF;
 FC2D   :   FF;
 FC2E   :   FF;
 FC2F   :   FF;
 FC30   :   FF;
 FC31   :   FF;
 FC32   :   FF;
 FC33   :   FF;
 FC34   :   FF;
 FC35   :   FF;
 FC36   :   FF;
 FC37   :   FF;
 FC38   :   FF;
 FC39   :   FF;
 FC3A   :   FF;
 FC3B   :   FF;
 FC3C   :   FF;
 FC3D   :   FF;
 FC3E   :   FF;
 FC3F   :   FF;
 FC40   :   FF;
 FC41   :   FF;
 FC42   :   FF;
 FC43   :   FF;
 FC44   :   FF;
 FC45   :   FF;
 FC46   :   FF;
 FC47   :   FF;
 FC48   :   FF;
 FC49   :   FF;
 FC4A   :   FF;
 FC4B   :   FF;
 FC4C   :   FF;
 FC4D   :   FF;
 FC4E   :   FF;
 FC4F   :   FF;
 FC50   :   FF;
 FC51   :   FF;
 FC52   :   FF;
 FC53   :   FF;
 FC54   :   FF;
 FC55   :   FF;
 FC56   :   FF;
 FC57   :   FF;
 FC58   :   FF;
 FC59   :   FF;
 FC5A   :   FF;
 FC5B   :   FF;
 FC5C   :   FF;
 FC5D   :   FF;
 FC5E   :   FF;
 FC5F   :   FF;
 FC60   :   FF;
 FC61   :   FF;
 FC62   :   FF;
 FC63   :   FF;
 FC64   :   FF;
 FC65   :   FF;
 FC66   :   FF;
 FC67   :   FF;
 FC68   :   FF;
 FC69   :   FF;
 FC6A   :   FF;
 FC6B   :   FF;
 FC6C   :   FF;
 FC6D   :   FF;
 FC6E   :   FF;
 FC6F   :   FF;
 FC70   :   FF;
 FC71   :   FF;
 FC72   :   FF;
 FC73   :   FF;
 FC74   :   FF;
 FC75   :   FF;
 FC76   :   FF;
 FC77   :   FF;
 FC78   :   FF;
 FC79   :   FF;
 FC7A   :   FF;
 FC7B   :   FF;
 FC7C   :   FF;
 FC7D   :   FF;
 FC7E   :   FF;
 FC7F   :   FF;
 FC80   :   FF;
 FC81   :   FF;
 FC82   :   FF;
 FC83   :   FF;
 FC84   :   FF;
 FC85   :   FF;
 FC86   :   FF;
 FC87   :   FF;
 FC88   :   FF;
 FC89   :   FF;
 FC8A   :   FF;
 FC8B   :   FF;
 FC8C   :   FF;
 FC8D   :   FF;
 FC8E   :   FF;
 FC8F   :   FF;
 FC90   :   FF;
 FC91   :   FF;
 FC92   :   FF;
 FC93   :   FF;
 FC94   :   FF;
 FC95   :   FF;
 FC96   :   FF;
 FC97   :   FF;
 FC98   :   FF;
 FC99   :   FF;
 FC9A   :   FF;
 FC9B   :   FF;
 FC9C   :   FF;
 FC9D   :   FF;
 FC9E   :   FF;
 FC9F   :   FF;
 FCA0   :   FF;
 FCA1   :   FF;
 FCA2   :   FF;
 FCA3   :   FF;
 FCA4   :   FF;
 FCA5   :   FF;
 FCA6   :   FF;
 FCA7   :   FF;
 FCA8   :   FF;
 FCA9   :   FF;
 FCAA   :   FF;
 FCAB   :   FF;
 FCAC   :   FF;
 FCAD   :   FF;
 FCAE   :   FF;
 FCAF   :   FF;
 FCB0   :   FF;
 FCB1   :   FF;
 FCB2   :   FF;
 FCB3   :   FF;
 FCB4   :   FF;
 FCB5   :   FF;
 FCB6   :   FF;
 FCB7   :   FF;
 FCB8   :   FF;
 FCB9   :   FF;
 FCBA   :   FF;
 FCBB   :   FF;
 FCBC   :   FF;
 FCBD   :   FF;
 FCBE   :   FF;
 FCBF   :   FF;
 FCC0   :   FF;
 FCC1   :   FF;
 FCC2   :   FF;
 FCC3   :   FF;
 FCC4   :   FF;
 FCC5   :   FF;
 FCC6   :   FF;
 FCC7   :   FF;
 FCC8   :   FF;
 FCC9   :   FF;
 FCCA   :   FF;
 FCCB   :   FF;
 FCCC   :   FF;
 FCCD   :   FF;
 FCCE   :   FF;
 FCCF   :   FF;
 FCD0   :   FF;
 FCD1   :   FF;
 FCD2   :   FF;
 FCD3   :   FF;
 FCD4   :   FF;
 FCD5   :   FF;
 FCD6   :   FF;
 FCD7   :   FF;
 FCD8   :   FF;
 FCD9   :   FF;
 FCDA   :   FF;
 FCDB   :   FF;
 FCDC   :   FF;
 FCDD   :   FF;
 FCDE   :   FF;
 FCDF   :   FF;
 FCE0   :   FF;
 FCE1   :   FF;
 FCE2   :   FF;
 FCE3   :   FF;
 FCE4   :   FF;
 FCE5   :   FF;
 FCE6   :   FF;
 FCE7   :   FF;
 FCE8   :   FF;
 FCE9   :   FF;
 FCEA   :   FF;
 FCEB   :   FF;
 FCEC   :   FF;
 FCED   :   FF;
 FCEE   :   FF;
 FCEF   :   FF;
 FCF0   :   FF;
 FCF1   :   FF;
 FCF2   :   FF;
 FCF3   :   FF;
 FCF4   :   FF;
 FCF5   :   FF;
 FCF6   :   FF;
 FCF7   :   FF;
 FCF8   :   FF;
 FCF9   :   FF;
 FCFA   :   FF;
 FCFB   :   FF;
 FCFC   :   FF;
 FCFD   :   FF;
 FCFE   :   FF;
 FCFF   :   FF;
 FD00   :   FF;
 FD01   :   FF;
 FD02   :   FF;
 FD03   :   FF;
 FD04   :   FF;
 FD05   :   FF;
 FD06   :   FF;
 FD07   :   FF;
 FD08   :   FF;
 FD09   :   FF;
 FD0A   :   FF;
 FD0B   :   FF;
 FD0C   :   FF;
 FD0D   :   FF;
 FD0E   :   FF;
 FD0F   :   FF;
 FD10   :   FF;
 FD11   :   FF;
 FD12   :   FF;
 FD13   :   FF;
 FD14   :   FF;
 FD15   :   FF;
 FD16   :   FF;
 FD17   :   FF;
 FD18   :   FF;
 FD19   :   FF;
 FD1A   :   FF;
 FD1B   :   FF;
 FD1C   :   FF;
 FD1D   :   FF;
 FD1E   :   FF;
 FD1F   :   FF;
 FD20   :   FF;
 FD21   :   FF;
 FD22   :   FF;
 FD23   :   FF;
 FD24   :   FF;
 FD25   :   FF;
 FD26   :   FF;
 FD27   :   FF;
 FD28   :   FF;
 FD29   :   FF;
 FD2A   :   FF;
 FD2B   :   FF;
 FD2C   :   FF;
 FD2D   :   FF;
 FD2E   :   FF;
 FD2F   :   FF;
 FD30   :   FF;
 FD31   :   FF;
 FD32   :   FF;
 FD33   :   FF;
 FD34   :   FF;
 FD35   :   FF;
 FD36   :   FF;
 FD37   :   FF;
 FD38   :   FF;
 FD39   :   FF;
 FD3A   :   FF;
 FD3B   :   FF;
 FD3C   :   FF;
 FD3D   :   FF;
 FD3E   :   FF;
 FD3F   :   FF;
 FD40   :   FF;
 FD41   :   FF;
 FD42   :   FF;
 FD43   :   FF;
 FD44   :   FF;
 FD45   :   FF;
 FD46   :   FF;
 FD47   :   FF;
 FD48   :   FF;
 FD49   :   FF;
 FD4A   :   FF;
 FD4B   :   FF;
 FD4C   :   FF;
 FD4D   :   FF;
 FD4E   :   FF;
 FD4F   :   FF;
 FD50   :   FF;
 FD51   :   FF;
 FD52   :   FF;
 FD53   :   FF;
 FD54   :   FF;
 FD55   :   FF;
 FD56   :   FF;
 FD57   :   FF;
 FD58   :   FF;
 FD59   :   FF;
 FD5A   :   FF;
 FD5B   :   FF;
 FD5C   :   FF;
 FD5D   :   FF;
 FD5E   :   FF;
 FD5F   :   FF;
 FD60   :   FF;
 FD61   :   FF;
 FD62   :   FF;
 FD63   :   FF;
 FD64   :   FF;
 FD65   :   FF;
 FD66   :   FF;
 FD67   :   FF;
 FD68   :   FF;
 FD69   :   FF;
 FD6A   :   FF;
 FD6B   :   FF;
 FD6C   :   FF;
 FD6D   :   FF;
 FD6E   :   FF;
 FD6F   :   FF;
 FD70   :   FF;
 FD71   :   FF;
 FD72   :   FF;
 FD73   :   FF;
 FD74   :   FF;
 FD75   :   FF;
 FD76   :   FF;
 FD77   :   FF;
 FD78   :   FF;
 FD79   :   FF;
 FD7A   :   FF;
 FD7B   :   FF;
 FD7C   :   FF;
 FD7D   :   FF;
 FD7E   :   FF;
 FD7F   :   FF;
 FD80   :   FF;
 FD81   :   FF;
 FD82   :   FF;
 FD83   :   FF;
 FD84   :   FF;
 FD85   :   FF;
 FD86   :   FF;
 FD87   :   FF;
 FD88   :   FF;
 FD89   :   FF;
 FD8A   :   FF;
 FD8B   :   FF;
 FD8C   :   FF;
 FD8D   :   FF;
 FD8E   :   FF;
 FD8F   :   FF;
 FD90   :   FF;
 FD91   :   FF;
 FD92   :   FF;
 FD93   :   FF;
 FD94   :   FF;
 FD95   :   FF;
 FD96   :   FF;
 FD97   :   FF;
 FD98   :   FF;
 FD99   :   FF;
 FD9A   :   FF;
 FD9B   :   FF;
 FD9C   :   FF;
 FD9D   :   FF;
 FD9E   :   FF;
 FD9F   :   FF;
 FDA0   :   FF;
 FDA1   :   FF;
 FDA2   :   FF;
 FDA3   :   FF;
 FDA4   :   FF;
 FDA5   :   FF;
 FDA6   :   FF;
 FDA7   :   FF;
 FDA8   :   FF;
 FDA9   :   FF;
 FDAA   :   FF;
 FDAB   :   FF;
 FDAC   :   FF;
 FDAD   :   FF;
 FDAE   :   FF;
 FDAF   :   FF;
 FDB0   :   FF;
 FDB1   :   FF;
 FDB2   :   FF;
 FDB3   :   FF;
 FDB4   :   FF;
 FDB5   :   FF;
 FDB6   :   FF;
 FDB7   :   FF;
 FDB8   :   FF;
 FDB9   :   FF;
 FDBA   :   FF;
 FDBB   :   FF;
 FDBC   :   FF;
 FDBD   :   FF;
 FDBE   :   FF;
 FDBF   :   FF;
 FDC0   :   FF;
 FDC1   :   FF;
 FDC2   :   FF;
 FDC3   :   FF;
 FDC4   :   FF;
 FDC5   :   FF;
 FDC6   :   FF;
 FDC7   :   FF;
 FDC8   :   FF;
 FDC9   :   FF;
 FDCA   :   FF;
 FDCB   :   FF;
 FDCC   :   FF;
 FDCD   :   FF;
 FDCE   :   FF;
 FDCF   :   FF;
 FDD0   :   FF;
 FDD1   :   FF;
 FDD2   :   FF;
 FDD3   :   FF;
 FDD4   :   FF;
 FDD5   :   FF;
 FDD6   :   FF;
 FDD7   :   FF;
 FDD8   :   FF;
 FDD9   :   FF;
 FDDA   :   FF;
 FDDB   :   FF;
 FDDC   :   FF;
 FDDD   :   FF;
 FDDE   :   FF;
 FDDF   :   FF;
 FDE0   :   FF;
 FDE1   :   FF;
 FDE2   :   FF;
 FDE3   :   FF;
 FDE4   :   FF;
 FDE5   :   FF;
 FDE6   :   FF;
 FDE7   :   FF;
 FDE8   :   FF;
 FDE9   :   FF;
 FDEA   :   FF;
 FDEB   :   FF;
 FDEC   :   FF;
 FDED   :   FF;
 FDEE   :   FF;
 FDEF   :   FF;
 FDF0   :   FF;
 FDF1   :   FF;
 FDF2   :   FF;
 FDF3   :   FF;
 FDF4   :   FF;
 FDF5   :   FF;
 FDF6   :   FF;
 FDF7   :   FF;
 FDF8   :   FF;
 FDF9   :   FF;
 FDFA   :   FF;
 FDFB   :   FF;
 FDFC   :   FF;
 FDFD   :   FF;
 FDFE   :   FF;
 FDFF   :   FF;
 FE00   :   FF;
 FE01   :   FF;
 FE02   :   FF;
 FE03   :   FF;
 FE04   :   FF;
 FE05   :   FF;
 FE06   :   FF;
 FE07   :   FF;
 FE08   :   FF;
 FE09   :   FF;
 FE0A   :   FF;
 FE0B   :   FF;
 FE0C   :   FF;
 FE0D   :   FF;
 FE0E   :   FF;
 FE0F   :   FF;
 FE10   :   FF;
 FE11   :   FF;
 FE12   :   FF;
 FE13   :   FF;
 FE14   :   FF;
 FE15   :   FF;
 FE16   :   FF;
 FE17   :   FF;
 FE18   :   FF;
 FE19   :   FF;
 FE1A   :   FF;
 FE1B   :   FF;
 FE1C   :   FF;
 FE1D   :   FF;
 FE1E   :   FF;
 FE1F   :   FF;
 FE20   :   FF;
 FE21   :   FF;
 FE22   :   FF;
 FE23   :   FF;
 FE24   :   FF;
 FE25   :   FF;
 FE26   :   FF;
 FE27   :   FF;
 FE28   :   FF;
 FE29   :   FF;
 FE2A   :   FF;
 FE2B   :   FF;
 FE2C   :   FF;
 FE2D   :   FF;
 FE2E   :   FF;
 FE2F   :   FF;
 FE30   :   FF;
 FE31   :   FF;
 FE32   :   FF;
 FE33   :   FF;
 FE34   :   FF;
 FE35   :   FF;
 FE36   :   FF;
 FE37   :   FF;
 FE38   :   FF;
 FE39   :   FF;
 FE3A   :   FF;
 FE3B   :   FF;
 FE3C   :   FF;
 FE3D   :   FF;
 FE3E   :   FF;
 FE3F   :   FF;
 FE40   :   FF;
 FE41   :   FF;
 FE42   :   FF;
 FE43   :   FF;
 FE44   :   FF;
 FE45   :   FF;
 FE46   :   FF;
 FE47   :   FF;
 FE48   :   FF;
 FE49   :   FF;
 FE4A   :   FF;
 FE4B   :   FF;
 FE4C   :   FF;
 FE4D   :   FF;
 FE4E   :   FF;
 FE4F   :   FF;
 FE50   :   FF;
 FE51   :   FF;
 FE52   :   FF;
 FE53   :   FF;
 FE54   :   FF;
 FE55   :   FF;
 FE56   :   FF;
 FE57   :   FF;
 FE58   :   FF;
 FE59   :   FF;
 FE5A   :   FF;
 FE5B   :   FF;
 FE5C   :   FF;
 FE5D   :   FF;
 FE5E   :   FF;
 FE5F   :   FF;
 FE60   :   FF;
 FE61   :   FF;
 FE62   :   FF;
 FE63   :   FF;
 FE64   :   FF;
 FE65   :   FF;
 FE66   :   FF;
 FE67   :   FF;
 FE68   :   FF;
 FE69   :   FF;
 FE6A   :   FF;
 FE6B   :   FF;
 FE6C   :   FF;
 FE6D   :   FF;
 FE6E   :   FF;
 FE6F   :   FF;
 FE70   :   FF;
 FE71   :   FF;
 FE72   :   FF;
 FE73   :   FF;
 FE74   :   FF;
 FE75   :   FF;
 FE76   :   FF;
 FE77   :   FF;
 FE78   :   FF;
 FE79   :   FF;
 FE7A   :   FF;
 FE7B   :   FF;
 FE7C   :   FF;
 FE7D   :   FF;
 FE7E   :   FF;
 FE7F   :   FF;
 FE80   :   FF;
 FE81   :   FF;
 FE82   :   FF;
 FE83   :   FF;
 FE84   :   FF;
 FE85   :   FF;
 FE86   :   FF;
 FE87   :   FF;
 FE88   :   FF;
 FE89   :   FF;
 FE8A   :   FF;
 FE8B   :   FF;
 FE8C   :   FF;
 FE8D   :   FF;
 FE8E   :   FF;
 FE8F   :   FF;
 FE90   :   FF;
 FE91   :   FF;
 FE92   :   FF;
 FE93   :   FF;
 FE94   :   FF;
 FE95   :   FF;
 FE96   :   FF;
 FE97   :   FF;
 FE98   :   FF;
 FE99   :   FF;
 FE9A   :   FF;
 FE9B   :   FF;
 FE9C   :   FF;
 FE9D   :   FF;
 FE9E   :   FF;
 FE9F   :   FF;
 FEA0   :   FF;
 FEA1   :   FF;
 FEA2   :   FF;
 FEA3   :   FF;
 FEA4   :   FF;
 FEA5   :   FF;
 FEA6   :   FF;
 FEA7   :   FF;
 FEA8   :   FF;
 FEA9   :   FF;
 FEAA   :   FF;
 FEAB   :   FF;
 FEAC   :   FF;
 FEAD   :   FF;
 FEAE   :   FF;
 FEAF   :   FF;
 FEB0   :   FF;
 FEB1   :   FF;
 FEB2   :   FF;
 FEB3   :   FF;
 FEB4   :   FF;
 FEB5   :   FF;
 FEB6   :   FF;
 FEB7   :   FF;
 FEB8   :   FF;
 FEB9   :   FF;
 FEBA   :   FF;
 FEBB   :   FF;
 FEBC   :   FF;
 FEBD   :   FF;
 FEBE   :   FF;
 FEBF   :   FF;
 FEC0   :   FF;
 FEC1   :   FF;
 FEC2   :   FF;
 FEC3   :   FF;
 FEC4   :   FF;
 FEC5   :   FF;
 FEC6   :   FF;
 FEC7   :   FF;
 FEC8   :   FF;
 FEC9   :   FF;
 FECA   :   FF;
 FECB   :   FF;
 FECC   :   FF;
 FECD   :   FF;
 FECE   :   FF;
 FECF   :   FF;
 FED0   :   FF;
 FED1   :   FF;
 FED2   :   FF;
 FED3   :   FF;
 FED4   :   FF;
 FED5   :   FF;
 FED6   :   FF;
 FED7   :   FF;
 FED8   :   FF;
 FED9   :   FF;
 FEDA   :   FF;
 FEDB   :   FF;
 FEDC   :   FF;
 FEDD   :   FF;
 FEDE   :   FF;
 FEDF   :   FF;
 FEE0   :   FF;
 FEE1   :   FF;
 FEE2   :   FF;
 FEE3   :   FF;
 FEE4   :   FF;
 FEE5   :   FF;
 FEE6   :   FF;
 FEE7   :   FF;
 FEE8   :   FF;
 FEE9   :   FF;
 FEEA   :   FF;
 FEEB   :   FF;
 FEEC   :   FF;
 FEED   :   FF;
 FEEE   :   FF;
 FEEF   :   FF;
 FEF0   :   FF;
 FEF1   :   FF;
 FEF2   :   FF;
 FEF3   :   FF;
 FEF4   :   FF;
 FEF5   :   FF;
 FEF6   :   FF;
 FEF7   :   FF;
 FEF8   :   FF;
 FEF9   :   FF;
 FEFA   :   FF;
 FEFB   :   FF;
 FEFC   :   FF;
 FEFD   :   FF;
 FEFE   :   FF;
 FEFF   :   FF;
 FF00   :   FF;
 FF01   :   FF;
 FF02   :   FF;
 FF03   :   FF;
 FF04   :   FF;
 FF05   :   FF;
 FF06   :   FF;
 FF07   :   FF;
 FF08   :   FF;
 FF09   :   FF;
 FF0A   :   FF;
 FF0B   :   FF;
 FF0C   :   FF;
 FF0D   :   FF;
 FF0E   :   FF;
 FF0F   :   FF;
 FF10   :   FF;
 FF11   :   FF;
 FF12   :   FF;
 FF13   :   FF;
 FF14   :   FF;
 FF15   :   FF;
 FF16   :   FF;
 FF17   :   FF;
 FF18   :   FF;
 FF19   :   FF;
 FF1A   :   FF;
 FF1B   :   FF;
 FF1C   :   FF;
 FF1D   :   FF;
 FF1E   :   FF;
 FF1F   :   FF;
 FF20   :   FF;
 FF21   :   FF;
 FF22   :   FF;
 FF23   :   FF;
 FF24   :   FF;
 FF25   :   FF;
 FF26   :   FF;
 FF27   :   FF;
 FF28   :   FF;
 FF29   :   FF;
 FF2A   :   FF;
 FF2B   :   FF;
 FF2C   :   FF;
 FF2D   :   FF;
 FF2E   :   FF;
 FF2F   :   FF;
 FF30   :   FF;
 FF31   :   FF;
 FF32   :   FF;
 FF33   :   FF;
 FF34   :   FF;
 FF35   :   FF;
 FF36   :   FF;
 FF37   :   FF;
 FF38   :   FF;
 FF39   :   FF;
 FF3A   :   FF;
 FF3B   :   FF;
 FF3C   :   FF;
 FF3D   :   FF;
 FF3E   :   FF;
 FF3F   :   FF;
 FF40   :   FF;
 FF41   :   FF;
 FF42   :   FF;
 FF43   :   FF;
 FF44   :   FF;
 FF45   :   FF;
 FF46   :   FF;
 FF47   :   FF;
 FF48   :   FF;
 FF49   :   FF;
 FF4A   :   FF;
 FF4B   :   FF;
 FF4C   :   FF;
 FF4D   :   FF;
 FF4E   :   FF;
 FF4F   :   FF;
 FF50   :   FF;
 FF51   :   FF;
 FF52   :   FF;
 FF53   :   FF;
 FF54   :   FF;
 FF55   :   FF;
 FF56   :   FF;
 FF57   :   FF;
 FF58   :   FF;
 FF59   :   FF;
 FF5A   :   FF;
 FF5B   :   FF;
 FF5C   :   FF;
 FF5D   :   FF;
 FF5E   :   FF;
 FF5F   :   FF;
 FF60   :   FF;
 FF61   :   FF;
 FF62   :   FF;
 FF63   :   FF;
 FF64   :   FF;
 FF65   :   FF;
 FF66   :   FF;
 FF67   :   FF;
 FF68   :   FF;
 FF69   :   FF;
 FF6A   :   FF;
 FF6B   :   FF;
 FF6C   :   FF;
 FF6D   :   FF;
 FF6E   :   FF;
 FF6F   :   FF;
 FF70   :   FF;
 FF71   :   FF;
 FF72   :   FF;
 FF73   :   FF;
 FF74   :   FF;
 FF75   :   FF;
 FF76   :   FF;
 FF77   :   FF;
 FF78   :   FF;
 FF79   :   FF;
 FF7A   :   FF;
 FF7B   :   FF;
 FF7C   :   FF;
 FF7D   :   FF;
 FF7E   :   FF;
 FF7F   :   FF;
 FF80   :   FF;
 FF81   :   FF;
 FF82   :   FF;
 FF83   :   FF;
 FF84   :   FF;
 FF85   :   FF;
 FF86   :   FF;
 FF87   :   FF;
 FF88   :   FF;
 FF89   :   FF;
 FF8A   :   FF;
 FF8B   :   FF;
 FF8C   :   FF;
 FF8D   :   FF;
 FF8E   :   FF;
 FF8F   :   FF;
 FF90   :   FF;
 FF91   :   FF;
 FF92   :   FF;
 FF93   :   FF;
 FF94   :   FF;
 FF95   :   FF;
 FF96   :   FF;
 FF97   :   FF;
 FF98   :   FF;
 FF99   :   FF;
 FF9A   :   FF;
 FF9B   :   FF;
 FF9C   :   FF;
 FF9D   :   FF;
 FF9E   :   FF;
 FF9F   :   FF;
 FFA0   :   FF;
 FFA1   :   FF;
 FFA2   :   FF;
 FFA3   :   FF;
 FFA4   :   FF;
 FFA5   :   FF;
 FFA6   :   FF;
 FFA7   :   FF;
 FFA8   :   FF;
 FFA9   :   FF;
 FFAA   :   FF;
 FFAB   :   FF;
 FFAC   :   FF;
 FFAD   :   FF;
 FFAE   :   FF;
 FFAF   :   FF;
 FFB0   :   FF;
 FFB1   :   FF;
 FFB2   :   FF;
 FFB3   :   FF;
 FFB4   :   FF;
 FFB5   :   FF;
 FFB6   :   FF;
 FFB7   :   FF;
 FFB8   :   FF;
 FFB9   :   FF;
 FFBA   :   FF;
 FFBB   :   FF;
 FFBC   :   FF;
 FFBD   :   FF;
 FFBE   :   FF;
 FFBF   :   FF;
 FFC0   :   FF;
 FFC1   :   FF;
 FFC2   :   FF;
 FFC3   :   FF;
 FFC4   :   FF;
 FFC5   :   FF;
 FFC6   :   FF;
 FFC7   :   FF;
 FFC8   :   FF;
 FFC9   :   FF;
 FFCA   :   FF;
 FFCB   :   FF;
 FFCC   :   FF;
 FFCD   :   FF;
 FFCE   :   FF;
 FFCF   :   FF;
 FFD0   :   FF;
 FFD1   :   FF;
 FFD2   :   FF;
 FFD3   :   FF;
 FFD4   :   FF;
 FFD5   :   FF;
 FFD6   :   FF;
 FFD7   :   FF;
 FFD8   :   FF;
 FFD9   :   FF;
 FFDA   :   FF;
 FFDB   :   FF;
 FFDC   :   FF;
 FFDD   :   FF;
 FFDE   :   FF;
 FFDF   :   FF;
 FFE0   :   FF;
 FFE1   :   FF;
 FFE2   :   FF;
 FFE3   :   FF;
 FFE4   :   FF;
 FFE5   :   FF;
 FFE6   :   FF;
 FFE7   :   FF;
 FFE8   :   FF;
 FFE9   :   FF;
 FFEA   :   FF;
 FFEB   :   FF;
 FFEC   :   FF;
 FFED   :   FF;
 FFEE   :   FF;
 FFEF   :   FF;
 FFF0   :   FF;
 FFF1   :   FF;
 FFF2   :   FF;
 FFF3   :   FF;
 FFF4   :   FF;
 FFF5   :   FF;
 FFF6   :   FF;
 FFF7   :   FF;
 FFF8   :   FF;
 FFF9   :   FF;
 FFFA   :   FF;
 FFFB   :   FF;
 FFFC   :   FF;
 FFFD   :   FF;
 FFFE   :   FF;
 FFFF   :   FF;
END; 