-- Copyright (C) 1991-2013 Altera Corporation
-- Your use of Altera Corporation's design tools, logic functions 
-- and other software and tools, and its AMPP partner logic 
-- functions, and any output files from any of the foregoing 
-- (including device programming or simulation files), and any 
-- associated documentation or information are expressly subject 
-- to the terms and conditions of the Altera Program License 
-- Subscription Agreement, Altera MegaCore Function License 
-- Agreement, or other applicable license agreement, including, 
-- without limitation, that your use is for the sole purpose of 
-- programming logic devices manufactured by Altera and sold by 
-- Altera or its authorized distributors.  Please refer to the 
-- applicable agreement for further details.

-- Quartus II generated Memory Initialization File (.mif)

WIDTH=8;
DEPTH=32768;

ADDRESS_RADIX=HEX;
DATA_RADIX=HEX;

CONTENT BEGIN    
    0   :   A2;
    1   :    0;
    2   :   4C;
    3   :   36;
    4   :   80;
    5   :   48;
    6   :   8A;
    7   :   48;
    8   :   98;
    9   :   48;
    A   :   20;
    B   :   91;
    C   :   B7;
    D   :   20;
    E   :   9C;
    F   :   83;
   10   :   20;
   11   :    0;
   12   :   83;
   13   :   20;
   14   :   6A;
   15   :   86;
   16   :   A5;
   17   :   43;
   18   :   18;
   19   :   69;
   1A   :    1;
   1B   :   85;
   1C   :   43;
   1D   :   A9;
   1E   :    0;
   1F   :   8D;
   20   :    5;
   21   :   20;
   22   :   8D;
   23   :    5;
   24   :   20;
   25   :   A9;
   26   :    1;
   27   :   85;
   28   :   33;
   29   :   20;
   2A   :   3D;
   2B   :   91;
   2C   :   A9;
   2D   :    0;
   2E   :   85;
   2F   :   42;
   30   :   68;
   31   :   A8;
   32   :   68;
   33   :   AA;
   34   :   68;
   35   :   40;
   36   :   AD;
   37   :   16;
   38   :    3;
   39   :   8D;
   3A   :   32;
   3B   :    7;
   3C   :   AD;
   3D   :   96;
   3E   :    3;
   3F   :   8D;
   40   :   33;
   41   :    7;
   42   :   AD;
   43   :    B;
   44   :    3;
   45   :   8D;
   46   :   34;
   47   :    7;
   48   :   AD;
   49   :   8B;
   4A   :    3;
   4B   :   8D;
   4C   :   35;
   4D   :    7;
   4E   :   A0;
   4F   :    6;
   50   :   84;
   51   :    1;
   52   :   A0;
   53   :    0;
   54   :   84;
   55   :    0;
   56   :   A9;
   57   :    0;
   58   :   91;
   59   :    0;
   5A   :   88;
   5B   :   D0;
   5C   :   FB;
   5D   :   C6;
   5E   :    1;
   5F   :   10;
   60   :   F7;
   61   :   AD;
   62   :   32;
   63   :    7;
   64   :   8D;
   65   :   16;
   66   :    3;
   67   :   AD;
   68   :   33;
   69   :    7;
   6A   :   8D;
   6B   :   96;
   6C   :    3;
   6D   :   AD;
   6E   :   34;
   6F   :    7;
   70   :   8D;
   71   :    B;
   72   :    3;
   73   :   AD;
   74   :   35;
   75   :    7;
   76   :   8D;
   77   :   8B;
   78   :    3;
   79   :   A2;
   7A   :    A;
   7B   :   BD;
   7C   :    F;
   7D   :    7;
   7E   :   85;
   7F   :   47;
   80   :   BD;
   81   :   F6;
   82   :   9F;
   83   :   C5;
   84   :   47;
   85   :   D0;
   86   :    6;
   87   :   CA;
   88   :   D0;
   89   :   F1;
   8A   :   4C;
   8B   :   E5;
   8C   :   80;
   8D   :   A2;
   8E   :    0;
   8F   :   A9;
   90   :   FF;
   91   :   A2;
   92   :    7;
   93   :   A0;
   94   :    7;
   95   :   20;
   96   :   9D;
   97   :   B8;
   98   :   A9;
   99   :    0;
   9A   :   8D;
   9B   :    0;
   9C   :    7;
   9D   :   8D;
   9E   :    1;
   9F   :    7;
   A0   :   8D;
   A1   :    2;
   A2   :    7;
   A3   :   8D;
   A4   :    4;
   A5   :    7;
   A6   :   8D;
   A7   :    5;
   A8   :    7;
   A9   :   A9;
   AA   :    1;
   AB   :   8D;
   AC   :    3;
   AD   :    7;
   AE   :   A9;
   AF   :    0;
   B0   :   8D;
   B1   :   23;
   B2   :    7;
   B3   :   8D;
   B4   :   24;
   B5   :    7;
   B6   :   8D;
   B7   :   28;
   B8   :    7;
   B9   :   8D;
   BA   :   16;
   BB   :    3;
   BC   :   8D;
   BD   :   96;
   BE   :    3;
   BF   :   8D;
   C0   :   31;
   C1   :    7;
   C2   :   A9;
   C3   :    1;
   C4   :   8D;
   C5   :   20;
   C6   :    7;
   C7   :   8D;
   C8   :   27;
   C9   :    7;
   CA   :   8D;
   CB   :    B;
   CC   :    3;
   CD   :   8D;
   CE   :   8B;
   CF   :    3;
   D0   :   A9;
   D1   :    2;
   D2   :   8D;
   D3   :   22;
   D4   :    7;
   D5   :   A9;
   D6   :    3;
   D7   :   8D;
   D8   :   25;
   D9   :    7;
   DA   :   A2;
   DB   :    A;
   DC   :   BD;
   DD   :   F6;
   DE   :   9F;
   DF   :   9D;
   E0   :    F;
   E1   :    7;
   E2   :   CA;
   E3   :   D0;
   E4   :   F7;
   E5   :   A2;
   E6   :   89;
   E7   :   86;
   E8   :   17;
   E9   :   CA;
   EA   :   86;
   EB   :   18;
   EC   :   A0;
   ED   :    0;
   EE   :   84;
   EF   :   FD;
   F0   :   8C;
   F1   :    5;
   F2   :   20;
   F3   :   A0;
   F4   :    0;
   F5   :   84;
   F6   :   FC;
   F7   :   8C;
   F8   :    5;
   F9   :   20;
   FA   :   A9;
   FB   :   90;
   FC   :   85;
   FD   :   FF;
   FE   :   8D;
   FF   :    0;
  100   :   20;
  101   :   A9;
  102   :    6;
  103   :   8D;
  104   :    1;
  105   :   20;
  106   :   20;
  107   :   D6;
  108   :   FF;
  109   :   20;
  10A   :   D3;
  10B   :   FF;
  10C   :   A9;
  10D   :   C0;
  10E   :   8D;
  10F   :    0;
  110   :    1;
  111   :   A9;
  112   :   80;
  113   :   8D;
  114   :    1;
  115   :    1;
  116   :   A9;
  117   :   35;
  118   :   8D;
  119   :    3;
  11A   :    1;
  11B   :   A9;
  11C   :   AC;
  11D   :   8D;
  11E   :    4;
  11F   :    1;
  120   :   20;
  121   :   85;
  122   :   B6;
  123   :   20;
  124   :   AB;
  125   :   B6;
  126   :   A9;
  127   :   20;
  128   :   20;
  129   :   B5;
  12A   :   B6;
  12B   :   A9;
  12C   :   24;
  12D   :   20;
  12E   :   B5;
  12F   :   B6;
  130   :   A9;
  131   :   28;
  132   :   20;
  133   :   B5;
  134   :   B6;
  135   :   A9;
  136   :   2C;
  137   :   20;
  138   :   B5;
  139   :   B6;
  13A   :   A9;
  13B   :    0;
  13C   :   85;
  13D   :   5D;
  13E   :   20;
  13F   :   D2;
  140   :   90;
  141   :   20;
  142   :   9E;
  143   :   B6;
  144   :   20;
  145   :   5D;
  146   :   B6;
  147   :   20;
  148   :   92;
  149   :   B6;
  14A   :   20;
  14B   :   5D;
  14C   :   B6;
  14D   :   A9;
  14E   :    E;
  14F   :   85;
  150   :   34;
  151   :   20;
  152   :   60;
  153   :   81;
  154   :   20;
  155   :   97;
  156   :   97;
  157   :   20;
  158   :   5D;
  159   :   B6;
  15A   :   20;
  15B   :   1B;
  15C   :   87;
  15D   :   4C;
  15E   :   51;
  15F   :   81;
  160   :   A5;
  161   :   46;
  162   :   20;
  163   :   B5;
  164   :   B8;
  165   :   25;
  166   :   98;
  167   :   5C;
  168   :   99;
  169   :   77;
  16A   :   81;
  16B   :    F;
  16C   :   82;
  16D   :   7C;
  16E   :   9B;
  16F   :   3B;
  170   :   95;
  171   :   F8;
  172   :   8F;
  173   :   93;
  174   :   95;
  175   :   9A;
  176   :   9C;
  177   :   20;
  178   :   85;
  179   :   B6;
  17A   :   20;
  17B   :   AB;
  17C   :   B6;
  17D   :   A9;
  17E   :    2;
  17F   :   20;
  180   :   E9;
  181   :   B8;
  182   :   A9;
  183   :    3;
  184   :   20;
  185   :   FD;
  186   :   B8;
  187   :   AD;
  188   :   27;
  189   :    7;
  18A   :   C9;
  18B   :    1;
  18C   :   D0;
  18D   :    6;
  18E   :   20;
  18F   :   DA;
  190   :   82;
  191   :   4C;
  192   :   E1;
  193   :   81;
  194   :   20;
  195   :   CB;
  196   :   B6;
  197   :    2;
  198   :   C6;
  199   :   A9;
  19A   :   20;
  19B   :   8D;
  19C   :    6;
  19D   :   20;
  19E   :   A9;
  19F   :   EC;
  1A0   :   8D;
  1A1   :    6;
  1A2   :   20;
  1A3   :   AD;
  1A4   :    B;
  1A5   :    3;
  1A6   :    A;
  1A7   :    A;
  1A8   :   AA;
  1A9   :   BD;
  1AA   :   46;
  1AB   :   A2;
  1AC   :   8D;
  1AD   :    7;
  1AE   :   20;
  1AF   :   BD;
  1B0   :   47;
  1B1   :   A2;
  1B2   :   8D;
  1B3   :    7;
  1B4   :   20;
  1B5   :   BD;
  1B6   :   48;
  1B7   :   A2;
  1B8   :   8D;
  1B9   :    7;
  1BA   :   20;
  1BB   :   A9;
  1BC   :   20;
  1BD   :   8D;
  1BE   :    6;
  1BF   :   20;
  1C0   :   A9;
  1C1   :   F1;
  1C2   :   8D;
  1C3   :    6;
  1C4   :   20;
  1C5   :   AD;
  1C6   :   8B;
  1C7   :    3;
  1C8   :    A;
  1C9   :    A;
  1CA   :   AA;
  1CB   :   BD;
  1CC   :   46;
  1CD   :   A2;
  1CE   :   8D;
  1CF   :    7;
  1D0   :   20;
  1D1   :   BD;
  1D2   :   47;
  1D3   :   A2;
  1D4   :   8D;
  1D5   :    7;
  1D6   :   20;
  1D7   :   BD;
  1D8   :   48;
  1D9   :   A2;
  1DA   :   8D;
  1DB   :    7;
  1DC   :   20;
  1DD   :   A9;
  1DE   :   83;
  1DF   :   85;
  1E0   :   66;
  1E1   :   A9;
  1E2   :   FF;
  1E3   :   85;
  1E4   :   5D;
  1E5   :   20;
  1E6   :   9E;
  1E7   :   B6;
  1E8   :   20;
  1E9   :   92;
  1EA   :   B6;
  1EB   :   A9;
  1EC   :    F;
  1ED   :   85;
  1EE   :   80;
  1EF   :   20;
  1F0   :   D2;
  1F1   :   90;
  1F2   :   A9;
  1F3   :    0;
  1F4   :   8D;
  1F5   :   29;
  1F6   :    7;
  1F7   :   8D;
  1F8   :   2A;
  1F9   :    7;
  1FA   :   8D;
  1FB   :   2B;
  1FC   :    7;
  1FD   :   8D;
  1FE   :   2C;
  1FF   :    7;
  200   :   8D;
  201   :   2D;
  202   :    7;
  203   :   8D;
  204   :   2E;
  205   :    7;
  206   :   8D;
  207   :   1E;
  208   :    3;
  209   :   8D;
  20A   :   9E;
  20B   :    3;
  20C   :   E6;
  20D   :   46;
  20E   :   60;
  20F   :   A9;
  210   :    0;
  211   :   85;
  212   :   92;
  213   :   85;
  214   :   57;
  215   :   85;
  216   :   8F;
  217   :   85;
  218   :   A1;
  219   :   85;
  21A   :   98;
  21B   :   85;
  21C   :   97;
  21D   :   85;
  21E   :   87;
  21F   :   85;
  220   :   88;
  221   :   85;
  222   :   89;
  223   :   85;
  224   :   80;
  225   :   85;
  226   :   90;
  227   :   85;
  228   :   91;
  229   :   85;
  22A   :   7D;
  22B   :   85;
  22C   :   A7;
  22D   :   8D;
  22E   :   28;
  22F   :    7;
  230   :   85;
  231   :   75;
  232   :   85;
  233   :   76;
  234   :   85;
  235   :   77;
  236   :   85;
  237   :   78;
  238   :   85;
  239   :   79;
  23A   :   85;
  23B   :   7A;
  23C   :   85;
  23D   :   72;
  23E   :   85;
  23F   :   73;
  240   :   85;
  241   :   74;
  242   :   85;
  243   :   7E;
  244   :   85;
  245   :   61;
  246   :   85;
  247   :   55;
  248   :   85;
  249   :   3E;
  24A   :   A9;
  24B   :    6;
  24C   :   85;
  24D   :   97;
  24E   :   A9;
  24F   :    4;
  250   :   85;
  251   :   58;
  252   :   A9;
  253   :   FF;
  254   :   85;
  255   :   54;
  256   :   AD;
  257   :   28;
  258   :    7;
  259   :   85;
  25A   :   8A;
  25B   :   85;
  25C   :   A0;
  25D   :   20;
  25E   :   A9;
  25F   :   82;
  260   :   20;
  261   :   96;
  262   :   8E;
  263   :   20;
  264   :   96;
  265   :   8E;
  266   :   A9;
  267   :    1;
  268   :   85;
  269   :   90;
  26A   :   20;
  26B   :   AE;
  26C   :   8F;
  26D   :   20;
  26E   :   B8;
  26F   :   90;
  270   :   20;
  271   :   C5;
  272   :   90;
  273   :   20;
  274   :   D3;
  275   :   8F;
  276   :   AD;
  277   :   16;
  278   :    3;
  279   :   C9;
  27A   :   15;
  27B   :   30;
  27C   :    8;
  27D   :   38;
  27E   :   E9;
  27F   :   14;
  280   :   8D;
  281   :   28;
  282   :    7;
  283   :   A9;
  284   :   14;
  285   :   18;
  286   :   69;
  287   :    1;
  288   :    A;
  289   :    A;
  28A   :   8D;
  28B   :   28;
  28C   :    3;
  28D   :   AD;
  28E   :   96;
  28F   :    3;
  290   :   18;
  291   :   69;
  292   :    1;
  293   :    A;
  294   :    A;
  295   :   8D;
  296   :   A8;
  297   :    3;
  298   :   A9;
  299   :   9F;
  29A   :   85;
  29B   :   52;
  29C   :   AE;
  29D   :   31;
  29E   :    7;
  29F   :   BD;
  2A0   :   6D;
  2A1   :   A2;
  2A2   :   8D;
  2A3   :   F5;
  2A4   :    6;
  2A5   :   20;
  2A6   :   5D;
  2A7   :   B6;
  2A8   :   60;
  2A9   :   A9;
  2AA   :   80;
  2AB   :   85;
  2AC   :   47;
  2AD   :   A9;
  2AE   :    0;
  2AF   :   85;
  2B0   :   48;
  2B1   :   A2;
  2B2   :   17;
  2B3   :   A0;
  2B4   :    2;
  2B5   :   20;
  2B6   :   7A;
  2B7   :   B7;
  2B8   :   A6;
  2B9   :   47;
  2BA   :   CA;
  2BB   :   A5;
  2BC   :   17;
  2BD   :   29;
  2BE   :    F;
  2BF   :   18;
  2C0   :   65;
  2C1   :   48;
  2C2   :   85;
  2C3   :   48;
  2C4   :   C9;
  2C5   :    9;
  2C6   :   90;
  2C7   :    6;
  2C8   :   38;
  2C9   :   E9;
  2CA   :    9;
  2CB   :   4C;
  2CC   :   C2;
  2CD   :   82;
  2CE   :   9D;
  2CF   :   80;
  2D0   :    7;
  2D1   :   C6;
  2D2   :   47;
  2D3   :   D0;
  2D4   :   DC;
  2D5   :   A9;
  2D6   :    8;
  2D7   :   85;
  2D8   :   46;
  2D9   :   60;
  2DA   :   20;
  2DB   :   CB;
  2DC   :   B6;
  2DD   :   A1;
  2DE   :   C1;
  2DF   :   A9;
  2E0   :   80;
  2E1   :   85;
  2E2   :   66;
  2E3   :   AD;
  2E4   :    B;
  2E5   :    3;
  2E6   :    A;
  2E7   :    A;
  2E8   :   AA;
  2E9   :   A0;
  2EA   :    3;
  2EB   :   A9;
  2EC   :   22;
  2ED   :   8D;
  2EE   :    6;
  2EF   :   20;
  2F0   :   A9;
  2F1   :   DA;
  2F2   :   8D;
  2F3   :    6;
  2F4   :   20;
  2F5   :   BD;
  2F6   :   46;
  2F7   :   A2;
  2F8   :   8D;
  2F9   :    7;
  2FA   :   20;
  2FB   :   E8;
  2FC   :   88;
  2FD   :   D0;
  2FE   :   F6;
  2FF   :   60;
  300   :   A9;
  301   :    4;
  302   :   85;
  303   :   58;
  304   :   AD;
  305   :    0;
  306   :    3;
  307   :   85;
  308   :   80;
  309   :   20;
  30A   :   2A;
  30B   :   83;
  30C   :   A5;
  30D   :   80;
  30E   :   8D;
  30F   :    0;
  310   :    3;
  311   :   AD;
  312   :   27;
  313   :    7;
  314   :   C9;
  315   :    2;
  316   :   D0;
  317   :   11;
  318   :   A9;
  319   :    5;
  31A   :   85;
  31B   :   58;
  31C   :   AD;
  31D   :   80;
  31E   :    3;
  31F   :   85;
  320   :   80;
  321   :   20;
  322   :   2A;
  323   :   83;
  324   :   A5;
  325   :   80;
  326   :   8D;
  327   :   80;
  328   :    3;
  329   :   60;
  32A   :   A5;
  32B   :   80;
  32C   :   C9;
  32D   :   FF;
  32E   :   F0;
  32F   :   6B;
  330   :   AD;
  331   :   27;
  332   :    7;
  333   :   C9;
  334   :    1;
  335   :   D0;
  336   :   13;
  337   :   A5;
  338   :   80;
  339   :    A;
  33A   :   A8;
  33B   :   B9;
  33C   :   20;
  33D   :   A7;
  33E   :   8D;
  33F   :    6;
  340   :   20;
  341   :   B9;
  342   :   21;
  343   :   A7;
  344   :   8D;
  345   :    6;
  346   :   20;
  347   :   4C;
  348   :   73;
  349   :   83;
  34A   :   A5;
  34B   :   58;
  34C   :   C9;
  34D   :    4;
  34E   :   D0;
  34F   :   13;
  350   :   A5;
  351   :   80;
  352   :    A;
  353   :   A8;
  354   :   B9;
  355   :   40;
  356   :   A7;
  357   :   8D;
  358   :    6;
  359   :   20;
  35A   :   B9;
  35B   :   41;
  35C   :   A7;
  35D   :   8D;
  35E   :    6;
  35F   :   20;
  360   :   4C;
  361   :   73;
  362   :   83;
  363   :   A5;
  364   :   80;
  365   :    A;
  366   :   A8;
  367   :   B9;
  368   :   60;
  369   :   A7;
  36A   :   8D;
  36B   :    6;
  36C   :   20;
  36D   :   B9;
  36E   :   61;
  36F   :   A7;
  370   :   8D;
  371   :    6;
  372   :   20;
  373   :   A9;
  374   :    0;
  375   :   85;
  376   :   57;
  377   :   A5;
  378   :   80;
  379   :    A;
  37A   :    A;
  37B   :    A;
  37C   :   A8;
  37D   :   A2;
  37E   :    8;
  37F   :   B1;
  380   :   57;
  381   :   29;
  382   :   F0;
  383   :   C9;
  384   :   B0;
  385   :   D0;
  386   :    9;
  387   :   B1;
  388   :   57;
  389   :   29;
  38A   :    F;
  38B   :    9;
  38C   :   F0;
  38D   :   4C;
  38E   :   92;
  38F   :   83;
  390   :   B1;
  391   :   57;
  392   :   8D;
  393   :    7;
  394   :   20;
  395   :   C8;
  396   :   CA;
  397   :   D0;
  398   :   E6;
  399   :   C6;
  39A   :   80;
  39B   :   60;
  39C   :   A5;
  39D   :   66;
  39E   :   F0;
  39F   :    3;
  3A0   :   4C;
  3A1   :   83;
  3A2   :   85;
  3A3   :   A5;
  3A4   :   68;
  3A5   :   F0;
  3A6   :    3;
  3A7   :   4C;
  3A8   :   11;
  3A9   :   85;
  3AA   :   A5;
  3AB   :   52;
  3AC   :   D0;
  3AD   :    3;
  3AE   :   4C;
  3AF   :   10;
  3B0   :   85;
  3B1   :   AD;
  3B2   :   27;
  3B3   :    7;
  3B4   :   C9;
  3B5   :    1;
  3B6   :   F0;
  3B7   :    3;
  3B8   :   4C;
  3B9   :   77;
  3BA   :   84;
  3BB   :   A5;
  3BC   :   52;
  3BD   :   29;
  3BE   :    4;
  3BF   :   F0;
  3C0   :   34;
  3C1   :   A9;
  3C2   :   21;
  3C3   :   8D;
  3C4   :    6;
  3C5   :   20;
  3C6   :   A9;
  3C7   :   62;
  3C8   :   8D;
  3C9   :    6;
  3CA   :   20;
  3CB   :   AD;
  3CC   :   2E;
  3CD   :    7;
  3CE   :   8D;
  3CF   :    7;
  3D0   :   20;
  3D1   :   AD;
  3D2   :   2D;
  3D3   :    7;
  3D4   :   8D;
  3D5   :    7;
  3D6   :   20;
  3D7   :   AD;
  3D8   :   2C;
  3D9   :    7;
  3DA   :   8D;
  3DB   :    7;
  3DC   :   20;
  3DD   :   AD;
  3DE   :   2B;
  3DF   :    7;
  3E0   :   8D;
  3E1   :    7;
  3E2   :   20;
  3E3   :   AD;
  3E4   :   2A;
  3E5   :    7;
  3E6   :   8D;
  3E7   :    7;
  3E8   :   20;
  3E9   :   AD;
  3EA   :   29;
  3EB   :    7;
  3EC   :   8D;
  3ED   :    7;
  3EE   :   20;
  3EF   :   A5;
  3F0   :   52;
  3F1   :   29;
  3F2   :   FB;
  3F3   :   85;
  3F4   :   52;
  3F5   :   A5;
  3F6   :   52;
  3F7   :   29;
  3F8   :    8;
  3F9   :   F0;
  3FA   :   34;
  3FB   :   A9;
  3FC   :   21;
  3FD   :   8D;
  3FE   :    6;
  3FF   :   20;
  400   :   A9;
  401   :    2;
  402   :   8D;
  403   :    6;
  404   :   20;
  405   :   AD;
  406   :    5;
  407   :    7;
  408   :   8D;
  409   :    7;
  40A   :   20;
  40B   :   AD;
  40C   :    4;
  40D   :    7;
  40E   :   8D;
  40F   :    7;
  410   :   20;
  411   :   AD;
  412   :    3;
  413   :    7;
  414   :   8D;
  415   :    7;
  416   :   20;
  417   :   AD;
  418   :    2;
  419   :    7;
  41A   :   8D;
  41B   :    7;
  41C   :   20;
  41D   :   AD;
  41E   :    1;
  41F   :    7;
  420   :   8D;
  421   :    7;
  422   :   20;
  423   :   AD;
  424   :    0;
  425   :    7;
  426   :   8D;
  427   :    7;
  428   :   20;
  429   :   A5;
  42A   :   52;
  42B   :   29;
  42C   :   F7;
  42D   :   85;
  42E   :   52;
  42F   :   A5;
  430   :   52;
  431   :   29;
  432   :   10;
  433   :   F0;
  434   :   23;
  435   :   A9;
  436   :   23;
  437   :   8D;
  438   :    6;
  439   :   20;
  43A   :   A9;
  43B   :   3B;
  43C   :   8D;
  43D   :    6;
  43E   :   20;
  43F   :   AD;
  440   :   24;
  441   :    3;
  442   :   29;
  443   :   F0;
  444   :   4A;
  445   :   4A;
  446   :   4A;
  447   :   4A;
  448   :   8D;
  449   :    7;
  44A   :   20;
  44B   :   A5;
  44C   :   A4;
  44D   :   29;
  44E   :    F;
  44F   :   8D;
  450   :    7;
  451   :   20;
  452   :   A5;
  453   :   52;
  454   :   29;
  455   :   EF;
  456   :   85;
  457   :   52;
  458   :   A5;
  459   :   52;
  45A   :   29;
  45B   :    2;
  45C   :   F0;
  45D   :   19;
  45E   :   A9;
  45F   :   22;
  460   :   8D;
  461   :    6;
  462   :   20;
  463   :   A9;
  464   :   7B;
  465   :   8D;
  466   :    6;
  467   :   20;
  468   :   AE;
  469   :   16;
  46A   :    3;
  46B   :   BD;
  46C   :   80;
  46D   :   A7;
  46E   :   20;
  46F   :   57;
  470   :   86;
  471   :   A5;
  472   :   52;
  473   :   29;
  474   :   FD;
  475   :   85;
  476   :   52;
  477   :   AD;
  478   :   27;
  479   :    7;
  47A   :   C9;
  47B   :    2;
  47C   :   F0;
  47D   :    3;
  47E   :   4C;
  47F   :   10;
  480   :   85;
  481   :   A5;
  482   :   52;
  483   :   29;
  484   :   80;
  485   :   D0;
  486   :    3;
  487   :   4C;
  488   :   10;
  489   :   85;
  48A   :   AD;
  48B   :   1E;
  48C   :    3;
  48D   :   F0;
  48E   :   3B;
  48F   :    A;
  490   :   AA;
  491   :   CA;
  492   :   CA;
  493   :   BD;
  494   :   9F;
  495   :   A3;
  496   :   8D;
  497   :    6;
  498   :   20;
  499   :   85;
  49A   :   48;
  49B   :   BD;
  49C   :   A0;
  49D   :   A3;
  49E   :   8D;
  49F   :    6;
  4A0   :   20;
  4A1   :   85;
  4A2   :   47;
  4A3   :   A9;
  4A4   :   5C;
  4A5   :   8D;
  4A6   :    7;
  4A7   :   20;
  4A8   :   A9;
  4A9   :   5D;
  4AA   :   8D;
  4AB   :    7;
  4AC   :   20;
  4AD   :   A5;
  4AE   :   47;
  4AF   :   18;
  4B0   :   69;
  4B1   :   20;
  4B2   :   85;
  4B3   :   47;
  4B4   :   A9;
  4B5   :    0;
  4B6   :   65;
  4B7   :   48;
  4B8   :   8D;
  4B9   :    6;
  4BA   :   20;
  4BB   :   A5;
  4BC   :   47;
  4BD   :   8D;
  4BE   :    6;
  4BF   :   20;
  4C0   :   A9;
  4C1   :   6C;
  4C2   :   8D;
  4C3   :    7;
  4C4   :   20;
  4C5   :   A9;
  4C6   :   6D;
  4C7   :   8D;
  4C8   :    7;
  4C9   :   20;
  4CA   :   AD;
  4CB   :   9E;
  4CC   :    3;
  4CD   :   F0;
  4CE   :   3B;
  4CF   :    A;
  4D0   :   AA;
  4D1   :   CA;
  4D2   :   CA;
  4D3   :   BD;
  4D4   :   A5;
  4D5   :   A3;
  4D6   :   8D;
  4D7   :    6;
  4D8   :   20;
  4D9   :   85;
  4DA   :   48;
  4DB   :   BD;
  4DC   :   A6;
  4DD   :   A3;
  4DE   :   8D;
  4DF   :    6;
  4E0   :   20;
  4E1   :   85;
  4E2   :   47;
  4E3   :   A9;
  4E4   :   5C;
  4E5   :   8D;
  4E6   :    7;
  4E7   :   20;
  4E8   :   A9;
  4E9   :   5D;
  4EA   :   8D;
  4EB   :    7;
  4EC   :   20;
  4ED   :   A5;
  4EE   :   47;
  4EF   :   18;
  4F0   :   69;
  4F1   :   20;
  4F2   :   85;
  4F3   :   47;
  4F4   :   A9;
  4F5   :    0;
  4F6   :   65;
  4F7   :   48;
  4F8   :   8D;
  4F9   :    6;
  4FA   :   20;
  4FB   :   A5;
  4FC   :   47;
  4FD   :   8D;
  4FE   :    6;
  4FF   :   20;
  500   :   A9;
  501   :   6C;
  502   :   8D;
  503   :    7;
  504   :   20;
  505   :   A9;
  506   :   6D;
  507   :   8D;
  508   :    7;
  509   :   20;
  50A   :   A5;
  50B   :   52;
  50C   :   25;
  50D   :   7F;
  50E   :   85;
  50F   :   52;
  510   :   60;
  511   :   A5;
  512   :   68;
  513   :   29;
  514   :   FC;
  515   :   D0;
  516   :   32;
  517   :   A5;
  518   :   68;
  519   :   C9;
  51A   :    1;
  51B   :   D0;
  51C   :    C;
  51D   :   20;
  51E   :   CB;
  51F   :   B6;
  520   :   C1;
  521   :   A2;
  522   :   A9;
  523   :    0;
  524   :   85;
  525   :   68;
  526   :   4C;
  527   :   82;
  528   :   85;
  529   :   C9;
  52A   :    2;
  52B   :   D0;
  52C   :    C;
  52D   :   20;
  52E   :   CB;
  52F   :   B6;
  530   :    8;
  531   :   A3;
  532   :   A9;
  533   :    0;
  534   :   85;
  535   :   68;
  536   :   4C;
  537   :   82;
  538   :   85;
  539   :   C9;
  53A   :    3;
  53B   :   D0;
  53C   :   45;
  53D   :   20;
  53E   :   CB;
  53F   :   B6;
  540   :   4F;
  541   :   A3;
  542   :   A9;
  543   :    0;
  544   :   85;
  545   :   68;
  546   :   4C;
  547   :   82;
  548   :   85;
  549   :   A5;
  54A   :   68;
  54B   :   29;
  54C   :    4;
  54D   :   F0;
  54E   :   33;
  54F   :   A5;
  550   :   68;
  551   :   29;
  552   :   FB;
  553   :   85;
  554   :   68;
  555   :   A9;
  556   :   21;
  557   :   8D;
  558   :    6;
  559   :   20;
  55A   :   A9;
  55B   :   57;
  55C   :   8D;
  55D   :    6;
  55E   :   20;
  55F   :   AE;
  560   :   16;
  561   :    3;
  562   :   BD;
  563   :   80;
  564   :   A7;
  565   :   20;
  566   :   57;
  567   :   86;
  568   :   AD;
  569   :   27;
  56A   :    7;
  56B   :   C9;
  56C   :    2;
  56D   :   D0;
  56E   :   13;
  56F   :   A9;
  570   :   21;
  571   :   8D;
  572   :    6;
  573   :   20;
  574   :   A9;
  575   :   B7;
  576   :   8D;
  577   :    6;
  578   :   20;
  579   :   AE;
  57A   :   96;
  57B   :    3;
  57C   :   BD;
  57D   :   80;
  57E   :   A7;
  57F   :   20;
  580   :   57;
  581   :   86;
  582   :   60;
  583   :   A5;
  584   :   66;
  585   :   C9;
  586   :   80;
  587   :   D0;
  588   :    B;
  589   :   20;
  58A   :   CB;
  58B   :   B6;
  58C   :   74;
  58D   :   A5;
  58E   :   20;
  58F   :   20;
  590   :   86;
  591   :   4C;
  592   :   1B;
  593   :   86;
  594   :   C9;
  595   :   81;
  596   :   D0;
  597   :    8;
  598   :   20;
  599   :   CB;
  59A   :   B6;
  59B   :   98;
  59C   :   A5;
  59D   :   4C;
  59E   :   1B;
  59F   :   86;
  5A0   :   C9;
  5A1   :   82;
  5A2   :   D0;
  5A3   :    8;
  5A4   :   20;
  5A5   :   CB;
  5A6   :   B6;
  5A7   :   BC;
  5A8   :   A5;
  5A9   :   4C;
  5AA   :   1B;
  5AB   :   86;
  5AC   :   C9;
  5AD   :   83;
  5AE   :   D0;
  5AF   :    B;
  5B0   :   20;
  5B1   :   CB;
  5B2   :   B6;
  5B3   :   E0;
  5B4   :   A5;
  5B5   :   20;
  5B6   :   20;
  5B7   :   86;
  5B8   :   4C;
  5B9   :   1B;
  5BA   :   86;
  5BB   :   C9;
  5BC   :   84;
  5BD   :   D0;
  5BE   :    8;
  5BF   :   20;
  5C0   :   CB;
  5C1   :   B6;
  5C2   :    4;
  5C3   :   A6;
  5C4   :   4C;
  5C5   :   1B;
  5C6   :   86;
  5C7   :   C9;
  5C8   :   85;
  5C9   :   D0;
  5CA   :    8;
  5CB   :   20;
  5CC   :   CB;
  5CD   :   B6;
  5CE   :   28;
  5CF   :   A6;
  5D0   :   4C;
  5D1   :   1B;
  5D2   :   86;
  5D3   :   C9;
  5D4   :   86;
  5D5   :   D0;
  5D6   :    8;
  5D7   :   20;
  5D8   :   CB;
  5D9   :   B6;
  5DA   :   4C;
  5DB   :   A6;
  5DC   :   4C;
  5DD   :   1B;
  5DE   :   86;
  5DF   :   C9;
  5E0   :   87;
  5E1   :   D0;
  5E2   :    8;
  5E3   :   20;
  5E4   :   CB;
  5E5   :   B6;
  5E6   :   70;
  5E7   :   A6;
  5E8   :   4C;
  5E9   :   1B;
  5EA   :   86;
  5EB   :   C9;
  5EC   :   88;
  5ED   :   D0;
  5EE   :    8;
  5EF   :   20;
  5F0   :   CB;
  5F1   :   B6;
  5F2   :   84;
  5F3   :   A6;
  5F4   :   4C;
  5F5   :   1B;
  5F6   :   86;
  5F7   :   C9;
  5F8   :   89;
  5F9   :   D0;
  5FA   :    8;
  5FB   :   20;
  5FC   :   CB;
  5FD   :   B6;
  5FE   :   A8;
  5FF   :   A6;
  600   :   4C;
  601   :   1B;
  602   :   86;
  603   :   C9;
  604   :   8A;
  605   :   D0;
  606   :    8;
  607   :   20;
  608   :   CB;
  609   :   B6;
  60A   :   CC;
  60B   :   A6;
  60C   :   4C;
  60D   :   1B;
  60E   :   86;
  60F   :   C9;
  610   :   8B;
  611   :   D0;
  612   :    8;
  613   :   20;
  614   :   CB;
  615   :   B6;
  616   :   F0;
  617   :   A6;
  618   :   4C;
  619   :   1B;
  61A   :   86;
  61B   :   A9;
  61C   :    0;
  61D   :   85;
  61E   :   66;
  61F   :   60;
  620   :   A9;
  621   :   3F;
  622   :   8D;
  623   :    6;
  624   :   20;
  625   :   A9;
  626   :    3;
  627   :   8D;
  628   :    6;
  629   :   20;
  62A   :   A6;
  62B   :   8B;
  62C   :   BD;
  62D   :   33;
  62E   :   A2;
  62F   :   8D;
  630   :    7;
  631   :   20;
  632   :   A9;
  633   :   3F;
  634   :   8D;
  635   :    6;
  636   :   20;
  637   :   A9;
  638   :    7;
  639   :   8D;
  63A   :    6;
  63B   :   20;
  63C   :   A6;
  63D   :   8B;
  63E   :   BD;
  63F   :   33;
  640   :   A2;
  641   :   8D;
  642   :    7;
  643   :   20;
  644   :   A9;
  645   :   3F;
  646   :   8D;
  647   :    6;
  648   :   20;
  649   :   A9;
  64A   :    F;
  64B   :   8D;
  64C   :    6;
  64D   :   20;
  64E   :   A6;
  64F   :   8B;
  650   :   BD;
  651   :   33;
  652   :   A2;
  653   :   8D;
  654   :    7;
  655   :   20;
  656   :   60;
  657   :   85;
  658   :   47;
  659   :   29;
  65A   :   F0;
  65B   :   4A;
  65C   :   4A;
  65D   :   4A;
  65E   :   4A;
  65F   :   8D;
  660   :    7;
  661   :   20;
  662   :   A5;
  663   :   47;
  664   :   29;
  665   :    F;
  666   :   8D;
  667   :    7;
  668   :   20;
  669   :   60;
  66A   :   A5;
  66B   :   7F;
  66C   :   F0;
  66D   :   2D;
  66E   :   C9;
  66F   :   80;
  670   :   B0;
  671   :   64;
  672   :   A5;
  673   :   43;
  674   :   29;
  675   :    7;
  676   :   D0;
  677   :   23;
  678   :   A5;
  679   :   7F;
  67A   :   AA;
  67B   :   A9;
  67C   :    1;
  67D   :   8D;
  67E   :   F1;
  67F   :    6;
  680   :   A9;
  681   :   21;
  682   :   8D;
  683   :    6;
  684   :   20;
  685   :   BD;
  686   :   A1;
  687   :   A0;
  688   :   8D;
  689   :    6;
  68A   :   20;
  68B   :   BD;
  68C   :   C4;
  68D   :   A0;
  68E   :   20;
  68F   :   9C;
  690   :   86;
  691   :   E6;
  692   :   7F;
  693   :   C9;
  694   :   FF;
  695   :   D0;
  696   :    4;
  697   :   A9;
  698   :    0;
  699   :   85;
  69A   :   7F;
  69B   :   60;
  69C   :   D0;
  69D   :   18;
  69E   :   A5;
  69F   :   8B;
  6A0   :    A;
  6A1   :    A;
  6A2   :   AA;
  6A3   :   BD;
  6A4   :   52;
  6A5   :   A2;
  6A6   :   8D;
  6A7   :    7;
  6A8   :   20;
  6A9   :   BD;
  6AA   :   53;
  6AB   :   A2;
  6AC   :   8D;
  6AD   :    7;
  6AE   :   20;
  6AF   :   BD;
  6B0   :   54;
  6B1   :   A2;
  6B2   :   8D;
  6B3   :    7;
  6B4   :   20;
  6B5   :   60;
  6B6   :   C9;
  6B7   :    1;
  6B8   :   D0;
  6B9   :   18;
  6BA   :   A6;
  6BB   :   96;
  6BC   :   CA;
  6BD   :   BD;
  6BE   :   80;
  6BF   :   A7;
  6C0   :   29;
  6C1   :   F0;
  6C2   :   4A;
  6C3   :   4A;
  6C4   :   4A;
  6C5   :   4A;
  6C6   :   8D;
  6C7   :    7;
  6C8   :   20;
  6C9   :   BD;
  6CA   :   80;
  6CB   :   A7;
  6CC   :   29;
  6CD   :    F;
  6CE   :   8D;
  6CF   :    7;
  6D0   :   20;
  6D1   :   60;
  6D2   :   8D;
  6D3   :    7;
  6D4   :   20;
  6D5   :   60;
  6D6   :   A5;
  6D7   :   7F;
  6D8   :   29;
  6D9   :   7F;
  6DA   :   AA;
  6DB   :   A9;
  6DC   :   21;
  6DD   :   8D;
  6DE   :    6;
  6DF   :   20;
  6E0   :   BD;
  6E1   :   A1;
  6E2   :   A0;
  6E3   :   8D;
  6E4   :    6;
  6E5   :   20;
  6E6   :   BD;
  6E7   :   C4;
  6E8   :   A0;
  6E9   :   20;
  6EA   :   FA;
  6EB   :   86;
  6EC   :   E6;
  6ED   :   7F;
  6EE   :   BD;
  6EF   :   C4;
  6F0   :   A0;
  6F1   :   C9;
  6F2   :   FF;
  6F3   :   D0;
  6F4   :    4;
  6F5   :   A9;
  6F6   :    0;
  6F7   :   85;
  6F8   :   7F;
  6F9   :   60;
  6FA   :   D0;
  6FB   :    C;
  6FC   :   A9;
  6FD   :   FF;
  6FE   :   8D;
  6FF   :    7;
  700   :   20;
  701   :   8D;
  702   :    7;
  703   :   20;
  704   :   8D;
  705   :    7;
  706   :   20;
  707   :   60;
  708   :   C9;
  709   :    1;
  70A   :   D0;
  70B   :    9;
  70C   :   A9;
  70D   :   FF;
  70E   :   8D;
  70F   :    7;
  710   :   20;
  711   :   8D;
  712   :    7;
  713   :   20;
  714   :   60;
  715   :   A9;
  716   :   FF;
  717   :   8D;
  718   :    7;
  719   :   20;
  71A   :   60;
  71B   :   A6;
  71C   :   42;
  71D   :   F0;
  71E   :    8;
  71F   :   A9;
  720   :   FF;
  721   :   9D;
  722   :    0;
  723   :    2;
  724   :   E8;
  725   :   D0;
  726   :   FA;
  727   :   60;
  728   :   AD;
  729   :   27;
  72A   :    7;
  72B   :   38;
  72C   :   E9;
  72D   :    1;
  72E   :    A;
  72F   :   85;
  730   :   47;
  731   :   A5;
  732   :   58;
  733   :   38;
  734   :   E9;
  735   :    4;
  736   :   18;
  737   :   65;
  738   :   47;
  739   :   A8;
  73A   :   B9;
  73B   :    4;
  73C   :   A7;
  73D   :   85;
  73E   :   47;
  73F   :   A5;
  740   :   85;
  741   :    A;
  742   :    A;
  743   :    A;
  744   :   18;
  745   :   65;
  746   :   47;
  747   :   85;
  748   :   44;
  749   :   A6;
  74A   :   86;
  74B   :   BD;
  74C   :   8D;
  74D   :   A4;
  74E   :   85;
  74F   :   45;
  750   :   A4;
  751   :   42;
  752   :   A5;
  753   :   A6;
  754   :    A;
  755   :    A;
  756   :   18;
  757   :   65;
  758   :   A5;
  759   :   AA;
  75A   :   BD;
  75B   :   9D;
  75C   :   A4;
  75D   :   AA;
  75E   :   A5;
  75F   :   81;
  760   :   85;
  761   :   47;
  762   :   20;
  763   :   7B;
  764   :   87;
  765   :   A5;
  766   :   82;
  767   :   85;
  768   :   47;
  769   :   20;
  76A   :   7B;
  76B   :   87;
  76C   :   A5;
  76D   :   83;
  76E   :   85;
  76F   :   47;
  770   :   20;
  771   :   7B;
  772   :   87;
  773   :   A5;
  774   :   84;
  775   :   85;
  776   :   47;
  777   :   20;
  778   :   7B;
  779   :   87;
  77A   :   60;
  77B   :   BD;
  77C   :   A9;
  77D   :   A4;
  77E   :   C9;
  77F   :   FF;
  780   :   F0;
  781   :   28;
  782   :   18;
  783   :   65;
  784   :   45;
  785   :   99;
  786   :    0;
  787   :    2;
  788   :   E8;
  789   :   C8;
  78A   :   BD;
  78B   :   A9;
  78C   :   A4;
  78D   :   18;
  78E   :   65;
  78F   :   47;
  790   :   99;
  791   :    0;
  792   :    2;
  793   :   E8;
  794   :   C8;
  795   :   BD;
  796   :   A9;
  797   :   A4;
  798   :   99;
  799   :    0;
  79A   :    2;
  79B   :   E8;
  79C   :   C8;
  79D   :   BD;
  79E   :   A9;
  79F   :   A4;
  7A0   :   18;
  7A1   :   65;
  7A2   :   44;
  7A3   :   99;
  7A4   :    0;
  7A5   :    2;
  7A6   :   E8;
  7A7   :   C8;
  7A8   :   84;
  7A9   :   42;
  7AA   :   60;
  7AB   :   20;
  7AC   :   D2;
  7AD   :   89;
  7AE   :   AD;
  7AF   :   27;
  7B0   :    7;
  7B1   :   C9;
  7B2   :    1;
  7B3   :   D0;
  7B4   :   26;
  7B5   :   20;
  7B6   :   DD;
  7B7   :   89;
  7B8   :   AD;
  7B9   :    9;
  7BA   :    3;
  7BB   :   F0;
  7BC   :   12;
  7BD   :   A9;
  7BE   :   C0;
  7BF   :   85;
  7C0   :   44;
  7C1   :   A9;
  7C2   :   4B;
  7C3   :   85;
  7C4   :   45;
  7C5   :   A9;
  7C6   :   32;
  7C7   :   85;
  7C8   :   53;
  7C9   :   20;
  7CA   :   FF;
  7CB   :   88;
  7CC   :   4C;
  7CD   :   74;
  7CE   :   88;
  7CF   :   20;
  7D0   :   7E;
  7D1   :   90;
  7D2   :   20;
  7D3   :   BF;
  7D4   :   89;
  7D5   :   20;
  7D6   :   BA;
  7D7   :   88;
  7D8   :   4C;
  7D9   :   74;
  7DA   :   88;
  7DB   :   A5;
  7DC   :   61;
  7DD   :   D0;
  7DE   :   4C;
  7DF   :   A5;
  7E0   :   55;
  7E1   :   D0;
  7E2   :   48;
  7E3   :   AD;
  7E4   :   1A;
  7E5   :    3;
  7E6   :   85;
  7E7   :   9A;
  7E8   :   AD;
  7E9   :   1B;
  7EA   :    3;
  7EB   :   85;
  7EC   :   9B;
  7ED   :   AD;
  7EE   :   1C;
  7EF   :    3;
  7F0   :   85;
  7F1   :   9C;
  7F2   :   AD;
  7F3   :   1D;
  7F4   :    3;
  7F5   :   85;
  7F6   :   9D;
  7F7   :   AD;
  7F8   :   25;
  7F9   :    3;
  7FA   :   85;
  7FB   :   A5;
  7FC   :   A9;
  7FD   :   38;
  7FE   :   85;
  7FF   :   44;
  800   :   A9;
  801   :   33;
  802   :   85;
  803   :   45;
  804   :   20;
  805   :   D4;
  806   :   88;
  807   :   AD;
  808   :   9A;
  809   :    3;
  80A   :   85;
  80B   :   9A;
  80C   :   AD;
  80D   :   9B;
  80E   :    3;
  80F   :   85;
  810   :   9B;
  811   :   AD;
  812   :   9C;
  813   :    3;
  814   :   85;
  815   :   9C;
  816   :   AD;
  817   :   9D;
  818   :    3;
  819   :   85;
  81A   :   9D;
  81B   :   AD;
  81C   :   A5;
  81D   :    3;
  81E   :   85;
  81F   :   A5;
  820   :   A9;
  821   :   B8;
  822   :   85;
  823   :   44;
  824   :   A9;
  825   :   33;
  826   :   85;
  827   :   45;
  828   :   20;
  829   :   D4;
  82A   :   88;
  82B   :   A9;
  82C   :   2B;
  82D   :   85;
  82E   :   45;
  82F   :   A9;
  830   :    1;
  831   :   85;
  832   :   60;
  833   :   A9;
  834   :   6D;
  835   :   85;
  836   :   44;
  837   :   AE;
  838   :   16;
  839   :    3;
  83A   :   BD;
  83B   :   80;
  83C   :   A7;
  83D   :   85;
  83E   :   53;
  83F   :   20;
  840   :   44;
  841   :   89;
  842   :   A9;
  843   :   84;
  844   :   85;
  845   :   44;
  846   :   AE;
  847   :   96;
  848   :    3;
  849   :   BD;
  84A   :   80;
  84B   :   A7;
  84C   :   85;
  84D   :   53;
  84E   :   20;
  84F   :   44;
  850   :   89;
  851   :   A9;
  852   :   BF;
  853   :   85;
  854   :   45;
  855   :   A9;
  856   :   6E;
  857   :   85;
  858   :   44;
  859   :   AD;
  85A   :   24;
  85B   :    3;
  85C   :   85;
  85D   :   53;
  85E   :   20;
  85F   :   44;
  860   :   89;
  861   :   A9;
  862   :   83;
  863   :   85;
  864   :   44;
  865   :   AD;
  866   :   A4;
  867   :    3;
  868   :   85;
  869   :   53;
  86A   :   20;
  86B   :   44;
  86C   :   89;
  86D   :   A9;
  86E   :    0;
  86F   :   85;
  870   :   60;
  871   :   20;
  872   :   75;
  873   :   88;
  874   :   60;
  875   :   A5;
  876   :   55;
  877   :   F0;
  878   :   1C;
  879   :   AA;
  87A   :   BD;
  87B   :   14;
  87C   :   A1;
  87D   :   85;
  87E   :   44;
  87F   :   A9;
  880   :   A7;
  881   :   85;
  882   :   45;
  883   :   A5;
  884   :   43;
  885   :   29;
  886   :    8;
  887   :   4A;
  888   :   4A;
  889   :   4A;
  88A   :   18;
  88B   :   69;
  88C   :    8;
  88D   :   85;
  88E   :   53;
  88F   :   20;
  890   :   FF;
  891   :   88;
  892   :   4C;
  893   :   B9;
  894   :   88;
  895   :   A5;
  896   :   61;
  897   :   F0;
  898   :   20;
  899   :   AA;
  89A   :   BD;
  89B   :   11;
  89C   :   A1;
  89D   :   85;
  89E   :   44;
  89F   :   A9;
  8A0   :   B7;
  8A1   :   85;
  8A2   :   45;
  8A3   :   A9;
  8A4   :    7;
  8A5   :   85;
  8A6   :   53;
  8A7   :   20;
  8A8   :   FF;
  8A9   :   88;
  8AA   :   A5;
  8AB   :   43;
  8AC   :   29;
  8AD   :    4;
  8AE   :   4A;
  8AF   :   4A;
  8B0   :   AA;
  8B1   :   BD;
  8B2   :   17;
  8B3   :   A1;
  8B4   :   85;
  8B5   :   53;
  8B6   :   20;
  8B7   :   FF;
  8B8   :   88;
  8B9   :   60;
  8BA   :   A5;
  8BB   :   A2;
  8BC   :   29;
  8BD   :    1;
  8BE   :    A;
  8BF   :    A;
  8C0   :   85;
  8C1   :   47;
  8C2   :   A6;
  8C3   :   7D;
  8C4   :   BD;
  8C5   :    A;
  8C6   :   A4;
  8C7   :   18;
  8C8   :   65;
  8C9   :   47;
  8CA   :   85;
  8CB   :   44;
  8CC   :   BD;
  8CD   :   24;
  8CE   :   A4;
  8CF   :   18;
  8D0   :   65;
  8D1   :   47;
  8D2   :   85;
  8D3   :   45;
  8D4   :   A4;
  8D5   :   42;
  8D6   :   A5;
  8D7   :   A3;
  8D8   :    A;
  8D9   :    A;
  8DA   :   18;
  8DB   :   65;
  8DC   :   A2;
  8DD   :   AA;
  8DE   :   BD;
  8DF   :   9D;
  8E0   :   A4;
  8E1   :   AA;
  8E2   :   A5;
  8E3   :   9A;
  8E4   :   85;
  8E5   :   47;
  8E6   :   20;
  8E7   :   7B;
  8E8   :   87;
  8E9   :   A5;
  8EA   :   9B;
  8EB   :   85;
  8EC   :   47;
  8ED   :   20;
  8EE   :   7B;
  8EF   :   87;
  8F0   :   A5;
  8F1   :   9C;
  8F2   :   85;
  8F3   :   47;
  8F4   :   20;
  8F5   :   7B;
  8F6   :   87;
  8F7   :   A5;
  8F8   :   9D;
  8F9   :   85;
  8FA   :   47;
  8FB   :   20;
  8FC   :   7B;
  8FD   :   87;
  8FE   :   60;
  8FF   :   18;
  900   :   A5;
  901   :   53;
  902   :   2A;
  903   :   AA;
  904   :   BD;
  905   :   CB;
  906   :   A8;
  907   :   85;
  908   :   47;
  909   :   E8;
  90A   :   BD;
  90B   :   CB;
  90C   :   A8;
  90D   :   85;
  90E   :   48;
  90F   :   A6;
  910   :   42;
  911   :   A0;
  912   :    0;
  913   :   B1;
  914   :   47;
  915   :   C9;
  916   :   80;
  917   :   F0;
  918   :   2A;
  919   :   18;
  91A   :   65;
  91B   :   45;
  91C   :   9D;
  91D   :    0;
  91E   :    2;
  91F   :   E8;
  920   :   C8;
  921   :   B1;
  922   :   47;
  923   :   9D;
  924   :    0;
  925   :    2;
  926   :   E8;
  927   :   C8;
  928   :   B1;
  929   :   47;
  92A   :   9D;
  92B   :    0;
  92C   :    2;
  92D   :   E8;
  92E   :   C8;
  92F   :   B1;
  930   :   47;
  931   :   18;
  932   :   65;
  933   :   44;
  934   :   9D;
  935   :    0;
  936   :    2;
  937   :   E8;
  938   :   C8;
  939   :   A9;
  93A   :    4;
  93B   :   18;
  93C   :   65;
  93D   :   42;
  93E   :   85;
  93F   :   42;
  940   :   4C;
  941   :   13;
  942   :   89;
  943   :   60;
  944   :   A6;
  945   :   42;
  946   :   A5;
  947   :   45;
  948   :   9D;
  949   :    0;
  94A   :    2;
  94B   :   A5;
  94C   :   53;
  94D   :   4A;
  94E   :   4A;
  94F   :   4A;
  950   :   4A;
  951   :   9D;
  952   :    1;
  953   :    2;
  954   :   A5;
  955   :   60;
  956   :   9D;
  957   :    2;
  958   :    2;
  959   :   A5;
  95A   :   44;
  95B   :   9D;
  95C   :    3;
  95D   :    2;
  95E   :   A5;
  95F   :   45;
  960   :   9D;
  961   :    4;
  962   :    2;
  963   :   A5;
  964   :   53;
  965   :   29;
  966   :    F;
  967   :   9D;
  968   :    5;
  969   :    2;
  96A   :   A5;
  96B   :   60;
  96C   :   9D;
  96D   :    6;
  96E   :    2;
  96F   :   A5;
  970   :   44;
  971   :   18;
  972   :   69;
  973   :    8;
  974   :   9D;
  975   :    7;
  976   :    2;
  977   :   A5;
  978   :   42;
  979   :   18;
  97A   :   69;
  97B   :    8;
  97C   :   85;
  97D   :   42;
  97E   :   60;
  97F   :   AD;
  980   :   27;
  981   :    7;
  982   :   C9;
  983   :    2;
  984   :   D0;
  985   :   38;
  986   :   A9;
  987   :   27;
  988   :   85;
  989   :   45;
  98A   :   A9;
  98B   :   6C;
  98C   :   85;
  98D   :   44;
  98E   :   AD;
  98F   :   25;
  990   :    7;
  991   :   85;
  992   :   53;
  993   :   A9;
  994   :    0;
  995   :   85;
  996   :   60;
  997   :   20;
  998   :   44;
  999   :   89;
  99A   :   A9;
  99B   :   3F;
  99C   :   85;
  99D   :   45;
  99E   :   A9;
  99F   :   6C;
  9A0   :   85;
  9A1   :   44;
  9A2   :   AD;
  9A3   :   1E;
  9A4   :    3;
  9A5   :   85;
  9A6   :   53;
  9A7   :   A9;
  9A8   :    0;
  9A9   :   85;
  9AA   :   60;
  9AB   :   20;
  9AC   :   44;
  9AD   :   89;
  9AE   :   A9;
  9AF   :   84;
  9B0   :   85;
  9B1   :   44;
  9B2   :   AD;
  9B3   :   9E;
  9B4   :    3;
  9B5   :   85;
  9B6   :   53;
  9B7   :   A9;
  9B8   :    0;
  9B9   :   85;
  9BA   :   60;
  9BB   :   20;
  9BC   :   44;
  9BD   :   89;
  9BE   :   60;
  9BF   :   A9;
  9C0   :   C0;
  9C1   :   85;
  9C2   :   44;
  9C3   :   A9;
  9C4   :   4B;
  9C5   :   85;
  9C6   :   45;
  9C7   :   A5;
  9C8   :   7E;
  9C9   :   18;
  9CA   :   69;
  9CB   :    A;
  9CC   :   85;
  9CD   :   53;
  9CE   :   20;
  9CF   :   FF;
  9D0   :   88;
  9D1   :   60;
  9D2   :   A5;
  9D3   :   43;
  9D4   :   29;
  9D5   :    8;
  9D6   :   4A;
  9D7   :   4A;
  9D8   :   4A;
  9D9   :   20;
  9DA   :   FD;
  9DB   :   B8;
  9DC   :   60;
  9DD   :   A5;
  9DE   :   89;
  9DF   :   F0;
  9E0   :    3;
  9E1   :   4C;
  9E2   :   31;
  9E3   :   8C;
  9E4   :   AD;
  9E5   :   7E;
  9E6   :    6;
  9E7   :   CD;
  9E8   :   7F;
  9E9   :    6;
  9EA   :   B0;
  9EB   :   34;
  9EC   :   E6;
  9ED   :   7B;
  9EE   :   A5;
  9EF   :   7B;
  9F0   :   29;
  9F1   :    3;
  9F2   :   85;
  9F3   :   7B;
  9F4   :   A9;
  9F5   :    0;
  9F6   :   8D;
  9F7   :   7F;
  9F8   :    6;
  9F9   :   A6;
  9FA   :   75;
  9FB   :   BD;
  9FC   :   23;
  9FD   :   A1;
  9FE   :   D0;
  9FF   :   40;
  A00   :   A6;
  A01   :   76;
  A02   :   BD;
  A03   :   23;
  A04   :   A1;
  A05   :   D0;
  A06   :   39;
  A07   :   A6;
  A08   :   77;
  A09   :   BD;
  A0A   :   23;
  A0B   :   A1;
  A0C   :   D0;
  A0D   :   32;
  A0E   :   A5;
  A0F   :   7B;
  A10   :   29;
  A11   :    1;
  A12   :   D0;
  A13   :   2C;
  A14   :   E6;
  A15   :   3E;
  A16   :   A5;
  A17   :   3E;
  A18   :   C9;
  A19   :   40;
  A1A   :   D0;
  A1B   :    4;
  A1C   :   A9;
  A1D   :    0;
  A1E   :   85;
  A1F   :   3E;
  A20   :   A6;
  A21   :   3E;
  A22   :   BD;
  A23   :   28;
  A24   :   A1;
  A25   :   85;
  A26   :   38;
  A27   :   BD;
  A28   :   A8;
  A29   :   A1;
  A2A   :   85;
  A2B   :   39;
  A2C   :   BD;
  A2D   :   3D;
  A2E   :   A1;
  A2F   :   85;
  A30   :   3A;
  A31   :   BD;
  A32   :   BD;
  A33   :   A1;
  A34   :   85;
  A35   :   3B;
  A36   :   BD;
  A37   :   52;
  A38   :   A1;
  A39   :   85;
  A3A   :   3C;
  A3B   :   BD;
  A3C   :   D2;
  A3D   :   A1;
  A3E   :   85;
  A3F   :   3D;
  A40   :   A5;
  A41   :   38;
  A42   :   85;
  A43   :   44;
  A44   :   A5;
  A45   :   39;
  A46   :   85;
  A47   :   45;
  A48   :   A5;
  A49   :   75;
  A4A   :   D0;
  A4B   :   11;
  A4C   :   A6;
  A4D   :   7B;
  A4E   :   BD;
  A4F   :   66;
  A50   :   A2;
  A51   :   85;
  A52   :   53;
  A53   :   20;
  A54   :   FF;
  A55   :   88;
  A56   :   A9;
  A57   :    0;
  A58   :   85;
  A59   :   78;
  A5A   :   4C;
  A5B   :   CF;
  A5C   :   8A;
  A5D   :   C9;
  A5E   :    1;
  A5F   :   D0;
  A60   :   22;
  A61   :   E6;
  A62   :   78;
  A63   :   A9;
  A64   :   30;
  A65   :   85;
  A66   :   53;
  A67   :   A6;
  A68   :   78;
  A69   :   BD;
  A6A   :   3A;
  A6B   :   A2;
  A6C   :   18;
  A6D   :   65;
  A6E   :   39;
  A6F   :   85;
  A70   :   45;
  A71   :   20;
  A72   :   FF;
  A73   :   88;
  A74   :   A5;
  A75   :   45;
  A76   :   C5;
  A77   :   39;
  A78   :   D0;
  A79   :   55;
  A7A   :   E6;
  A7B   :   75;
  A7C   :   A9;
  A7D   :    0;
  A7E   :   85;
  A7F   :   78;
  A80   :   4C;
  A81   :   CF;
  A82   :   8A;
  A83   :   C9;
  A84   :    2;
  A85   :   D0;
  A86   :   33;
  A87   :   E6;
  A88   :   78;
  A89   :   A5;
  A8A   :   78;
  A8B   :   C9;
  A8C   :   A0;
  A8D   :   D0;
  A8E   :   15;
  A8F   :   A9;
  A90   :    0;
  A91   :   85;
  A92   :   75;
  A93   :   A5;
  A94   :   72;
  A95   :   D0;
  A96   :    D;
  A97   :   A9;
  A98   :    9;
  A99   :   8D;
  A9A   :   F1;
  A9B   :    6;
  A9C   :   A9;
  A9D   :    3;
  A9E   :   85;
  A9F   :   75;
  AA0   :   A9;
  AA1   :    0;
  AA2   :   85;
  AA3   :   78;
  AA4   :   A9;
  AA5   :    3;
  AA6   :   8D;
  AA7   :   F0;
  AA8   :    6;
  AA9   :   A5;
  AAA   :   43;
  AAB   :   29;
  AAC   :    4;
  AAD   :   4A;
  AAE   :   4A;
  AAF   :   18;
  AB0   :   69;
  AB1   :   30;
  AB2   :   85;
  AB3   :   53;
  AB4   :   20;
  AB5   :   FF;
  AB6   :   88;
  AB7   :   4C;
  AB8   :   CF;
  AB9   :   8A;
  ABA   :   C9;
  ABB   :    3;
  ABC   :   D0;
  ABD   :   11;
  ABE   :   A9;
  ABF   :   33;
  AC0   :   85;
  AC1   :   53;
  AC2   :   20;
  AC3   :   FF;
  AC4   :   88;
  AC5   :   E6;
  AC6   :   78;
  AC7   :   A5;
  AC8   :   78;
  AC9   :   C9;
  ACA   :    5;
  ACB   :   90;
  ACC   :    2;
  ACD   :   E6;
  ACE   :   75;
  ACF   :   A5;
  AD0   :   3A;
  AD1   :   85;
  AD2   :   44;
  AD3   :   A5;
  AD4   :   3B;
  AD5   :   85;
  AD6   :   45;
  AD7   :   A5;
  AD8   :   76;
  AD9   :   D0;
  ADA   :   11;
  ADB   :   A6;
  ADC   :   7B;
  ADD   :   BD;
  ADE   :   5E;
  ADF   :   A2;
  AE0   :   85;
  AE1   :   53;
  AE2   :   20;
  AE3   :   FF;
  AE4   :   88;
  AE5   :   A9;
  AE6   :    0;
  AE7   :   85;
  AE8   :   79;
  AE9   :   4C;
  AEA   :   5E;
  AEB   :   8B;
  AEC   :   C9;
  AED   :    1;
  AEE   :   D0;
  AEF   :   22;
  AF0   :   E6;
  AF1   :   79;
  AF2   :   A9;
  AF3   :   2C;
  AF4   :   85;
  AF5   :   53;
  AF6   :   A6;
  AF7   :   79;
  AF8   :   BD;
  AF9   :   3A;
  AFA   :   A2;
  AFB   :   18;
  AFC   :   65;
  AFD   :   3B;
  AFE   :   85;
  AFF   :   45;
  B00   :   20;
  B01   :   FF;
  B02   :   88;
  B03   :   A5;
  B04   :   45;
  B05   :   C5;
  B06   :   3B;
  B07   :   D0;
  B08   :   55;
  B09   :   E6;
  B0A   :   76;
  B0B   :   A9;
  B0C   :    0;
  B0D   :   85;
  B0E   :   79;
  B0F   :   4C;
  B10   :   5E;
  B11   :   8B;
  B12   :   C9;
  B13   :    2;
  B14   :   D0;
  B15   :   33;
  B16   :   E6;
  B17   :   79;
  B18   :   A5;
  B19   :   79;
  B1A   :   C9;
  B1B   :   A0;
  B1C   :   D0;
  B1D   :   15;
  B1E   :   A9;
  B1F   :    0;
  B20   :   85;
  B21   :   76;
  B22   :   A5;
  B23   :   73;
  B24   :   D0;
  B25   :    D;
  B26   :   A9;
  B27   :    9;
  B28   :   8D;
  B29   :   F1;
  B2A   :    6;
  B2B   :   A9;
  B2C   :    3;
  B2D   :   85;
  B2E   :   76;
  B2F   :   A9;
  B30   :    0;
  B31   :   85;
  B32   :   79;
  B33   :   A9;
  B34   :    3;
  B35   :   8D;
  B36   :   F0;
  B37   :    6;
  B38   :   A5;
  B39   :   43;
  B3A   :   29;
  B3B   :    4;
  B3C   :   4A;
  B3D   :   4A;
  B3E   :   18;
  B3F   :   69;
  B40   :   2C;
  B41   :   85;
  B42   :   53;
  B43   :   20;
  B44   :   FF;
  B45   :   88;
  B46   :   4C;
  B47   :   5E;
  B48   :   8B;
  B49   :   C9;
  B4A   :    3;
  B4B   :   D0;
  B4C   :   11;
  B4D   :   A9;
  B4E   :   33;
  B4F   :   85;
  B50   :   53;
  B51   :   20;
  B52   :   FF;
  B53   :   88;
  B54   :   E6;
  B55   :   79;
  B56   :   A5;
  B57   :   79;
  B58   :   C9;
  B59   :    5;
  B5A   :   90;
  B5B   :    2;
  B5C   :   E6;
  B5D   :   76;
  B5E   :   A5;
  B5F   :   3C;
  B60   :   85;
  B61   :   44;
  B62   :   A5;
  B63   :   3D;
  B64   :   85;
  B65   :   45;
  B66   :   A5;
  B67   :   77;
  B68   :   D0;
  B69   :   11;
  B6A   :   A6;
  B6B   :   7B;
  B6C   :   BD;
  B6D   :   62;
  B6E   :   A2;
  B6F   :   85;
  B70   :   53;
  B71   :   20;
  B72   :   FF;
  B73   :   88;
  B74   :   A9;
  B75   :    0;
  B76   :   85;
  B77   :   7A;
  B78   :   4C;
  B79   :   ED;
  B7A   :   8B;
  B7B   :   C9;
  B7C   :    1;
  B7D   :   D0;
  B7E   :   22;
  B7F   :   E6;
  B80   :   7A;
  B81   :   A9;
  B82   :   2E;
  B83   :   85;
  B84   :   53;
  B85   :   A6;
  B86   :   7A;
  B87   :   BD;
  B88   :   3A;
  B89   :   A2;
  B8A   :   18;
  B8B   :   65;
  B8C   :   3D;
  B8D   :   85;
  B8E   :   45;
  B8F   :   20;
  B90   :   FF;
  B91   :   88;
  B92   :   A5;
  B93   :   45;
  B94   :   C5;
  B95   :   3D;
  B96   :   D0;
  B97   :   55;
  B98   :   E6;
  B99   :   77;
  B9A   :   A9;
  B9B   :    0;
  B9C   :   85;
  B9D   :   7A;
  B9E   :   4C;
  B9F   :   ED;
  BA0   :   8B;
  BA1   :   C9;
  BA2   :    2;
  BA3   :   D0;
  BA4   :   33;
  BA5   :   E6;
  BA6   :   7A;
  BA7   :   A5;
  BA8   :   7A;
  BA9   :   C9;
  BAA   :   A0;
  BAB   :   D0;
  BAC   :   15;
  BAD   :   A9;
  BAE   :    0;
  BAF   :   85;
  BB0   :   77;
  BB1   :   A5;
  BB2   :   74;
  BB3   :   D0;
  BB4   :    D;
  BB5   :   A9;
  BB6   :    9;
  BB7   :   8D;
  BB8   :   F1;
  BB9   :    6;
  BBA   :   A9;
  BBB   :    3;
  BBC   :   85;
  BBD   :   77;
  BBE   :   A9;
  BBF   :    0;
  BC0   :   85;
  BC1   :   7A;
  BC2   :   A9;
  BC3   :    3;
  BC4   :   8D;
  BC5   :   F0;
  BC6   :    6;
  BC7   :   A5;
  BC8   :   43;
  BC9   :   29;
  BCA   :    4;
  BCB   :   4A;
  BCC   :   4A;
  BCD   :   18;
  BCE   :   69;
  BCF   :   2E;
  BD0   :   85;
  BD1   :   53;
  BD2   :   20;
  BD3   :   FF;
  BD4   :   88;
  BD5   :   4C;
  BD6   :   ED;
  BD7   :   8B;
  BD8   :   C9;
  BD9   :    3;
  BDA   :   D0;
  BDB   :   11;
  BDC   :   A9;
  BDD   :   33;
  BDE   :   85;
  BDF   :   53;
  BE0   :   20;
  BE1   :   FF;
  BE2   :   88;
  BE3   :   E6;
  BE4   :   7A;
  BE5   :   A5;
  BE6   :   7A;
  BE7   :   C9;
  BE8   :    5;
  BE9   :   90;
  BEA   :    2;
  BEB   :   E6;
  BEC   :   77;
  BED   :   60;
  BEE   :   AD;
  BEF   :   7E;
  BF0   :    6;
  BF1   :   CD;
  BF2   :   7F;
  BF3   :    6;
  BF4   :   B0;
  BF5   :    D;
  BF6   :   E6;
  BF7   :   7B;
  BF8   :   A5;
  BF9   :   7B;
  BFA   :   29;
  BFB   :    3;
  BFC   :   85;
  BFD   :   7B;
  BFE   :   A9;
  BFF   :    0;
  C00   :   8D;
  C01   :   7F;
  C02   :    6;
  C03   :   A9;
  C04   :   C0;
  C05   :   85;
  C06   :   44;
  C07   :   A9;
  C08   :   B0;
  C09   :   85;
  C0A   :   45;
  C0B   :   A6;
  C0C   :   7B;
  C0D   :   BD;
  C0E   :   62;
  C0F   :   A2;
  C10   :   85;
  C11   :   53;
  C12   :   20;
  C13   :   FF;
  C14   :   88;
  C15   :   A9;
  C16   :   2C;
  C17   :   85;
  C18   :   44;
  C19   :   A9;
  C1A   :   A7;
  C1B   :   85;
  C1C   :   45;
  C1D   :   A9;
  C1E   :   48;
  C1F   :   85;
  C20   :   53;
  C21   :   20;
  C22   :   FF;
  C23   :   88;
  C24   :   A5;
  C25   :   7B;
  C26   :   29;
  C27   :    1;
  C28   :   18;
  C29   :   69;
  C2A   :   49;
  C2B   :   85;
  C2C   :   53;
  C2D   :   20;
  C2E   :   FF;
  C2F   :   88;
  C30   :   60;
  C31   :   A5;
  C32   :   38;
  C33   :   85;
  C34   :   44;
  C35   :   A5;
  C36   :   39;
  C37   :   85;
  C38   :   45;
  C39   :   A5;
  C3A   :   43;
  C3B   :   29;
  C3C   :    4;
  C3D   :   4A;
  C3E   :   4A;
  C3F   :   AA;
  C40   :   BD;
  C41   :    8;
  C42   :   A1;
  C43   :   85;
  C44   :   53;
  C45   :   20;
  C46   :   FF;
  C47   :   88;
  C48   :   A5;
  C49   :   3A;
  C4A   :   85;
  C4B   :   44;
  C4C   :   A5;
  C4D   :   3B;
  C4E   :   85;
  C4F   :   45;
  C50   :   A5;
  C51   :   43;
  C52   :   29;
  C53   :    8;
  C54   :   4A;
  C55   :   4A;
  C56   :   4A;
  C57   :   AA;
  C58   :   BD;
  C59   :    A;
  C5A   :   A1;
  C5B   :   85;
  C5C   :   53;
  C5D   :   20;
  C5E   :   FF;
  C5F   :   88;
  C60   :   A5;
  C61   :   3C;
  C62   :   85;
  C63   :   44;
  C64   :   A5;
  C65   :   3D;
  C66   :   85;
  C67   :   45;
  C68   :   A5;
  C69   :   43;
  C6A   :   29;
  C6B   :    4;
  C6C   :   4A;
  C6D   :   4A;
  C6E   :   AA;
  C6F   :   BD;
  C70   :    C;
  C71   :   A1;
  C72   :   85;
  C73   :   53;
  C74   :   20;
  C75   :   FF;
  C76   :   88;
  C77   :   60;
  C78   :   20;
  C79   :   7C;
  C7A   :   8C;
  C7B   :   60;
  C7C   :   A5;
  C7D   :   87;
  C7E   :   20;
  C7F   :   B5;
  C80   :   B8;
  C81   :   93;
  C82   :   8C;
  C83   :   9A;
  C84   :   8C;
  C85   :   9A;
  C86   :   8C;
  C87   :   9D;
  C88   :   8C;
  C89   :   1C;
  C8A   :   94;
  C8B   :    4;
  C8C   :   92;
  C8D   :   72;
  C8E   :   94;
  C8F   :   E4;
  C90   :   92;
  C91   :   58;
  C92   :   8D;
  C93   :   A9;
  C94   :    0;
  C95   :   85;
  C96   :   AD;
  C97   :   E6;
  C98   :   87;
  C99   :   60;
  C9A   :   E6;
  C9B   :   87;
  C9C   :   60;
  C9D   :   A5;
  C9E   :   80;
  C9F   :   C9;
  CA0   :   FF;
  CA1   :   F0;
  CA2   :    3;
  CA3   :   4C;
  CA4   :   57;
  CA5   :   8D;
  CA6   :   A9;
  CA7   :    0;
  CA8   :   85;
  CA9   :   47;
  CAA   :   85;
  CAB   :   57;
  CAC   :   A0;
  CAD   :   7F;
  CAE   :   84;
  CAF   :   49;
  CB0   :   A4;
  CB1   :   49;
  CB2   :   B1;
  CB3   :   57;
  CB4   :   C9;
  CB5   :   F0;
  CB6   :   B0;
  CB7   :    3;
  CB8   :   4C;
  CB9   :   3D;
  CBA   :   8D;
  CBB   :   A9;
  CBC   :   FF;
  CBD   :   91;
  CBE   :   57;
  CBF   :   85;
  CC0   :   48;
  CC1   :   AD;
  CC2   :   24;
  CC3   :    7;
  CC4   :   D0;
  CC5   :   77;
  CC6   :   84;
  CC7   :   49;
  CC8   :   98;
  CC9   :   38;
  CCA   :   E9;
  CCB   :    8;
  CCC   :   A8;
  CCD   :   B1;
  CCE   :   57;
  CCF   :   C9;
  CD0   :   A0;
  CD1   :   B0;
  CD2   :   6A;
  CD3   :   29;
  CD4   :   F0;
  CD5   :   C9;
  CD6   :   60;
  CD7   :   F0;
  CD8   :   64;
  CD9   :   C9;
  CDA   :   A0;
  CDB   :   F0;
  CDC   :   60;
  CDD   :   C9;
  CDE   :   70;
  CDF   :   D0;
  CE0   :   40;
  CE1   :   84;
  CE2   :   4A;
  CE3   :   84;
  CE4   :   4C;
  CE5   :   A5;
  CE6   :   49;
  CE7   :   85;
  CE8   :   4B;
  CE9   :   C6;
  CEA   :   4A;
  CEB   :   C6;
  CEC   :   4B;
  CED   :   A4;
  CEE   :   4B;
  CEF   :   B1;
  CF0   :   57;
  CF1   :   C9;
  CF2   :   F0;
  CF3   :   90;
  CF4   :   48;
  CF5   :   A4;
  CF6   :   4A;
  CF7   :   B1;
  CF8   :   57;
  CF9   :   29;
  CFA   :   F0;
  CFB   :   C9;
  CFC   :   60;
  CFD   :   D0;
  CFE   :   EA;
  CFF   :   A4;
  D00   :   4C;
  D01   :   B1;
  D02   :   57;
  D03   :   A4;
  D04   :   49;
  D05   :   91;
  D06   :   57;
  D07   :   A9;
  D08   :   FF;
  D09   :   A4;
  D0A   :   4C;
  D0B   :   91;
  D0C   :   57;
  D0D   :   A5;
  D0E   :   49;
  D0F   :   C5;
  D10   :   4B;
  D11   :   F0;
  D12   :   2A;
  D13   :   C6;
  D14   :   49;
  D15   :   C6;
  D16   :   4C;
  D17   :   E6;
  D18   :   47;
  D19   :   A9;
  D1A   :    7;
  D1B   :   8D;
  D1C   :   F1;
  D1D   :    6;
  D1E   :   4C;
  D1F   :   FF;
  D20   :   8C;
  D21   :   A4;
  D22   :   49;
  D23   :   98;
  D24   :   38;
  D25   :   E9;
  D26   :    8;
  D27   :   A8;
  D28   :   B1;
  D29   :   57;
  D2A   :   85;
  D2B   :   48;
  D2C   :   A9;
  D2D   :   FF;
  D2E   :   91;
  D2F   :   57;
  D30   :   A4;
  D31   :   49;
  D32   :   A5;
  D33   :   48;
  D34   :   91;
  D35   :   57;
  D36   :   E6;
  D37   :   47;
  D38   :   A9;
  D39   :    7;
  D3A   :   8D;
  D3B   :   F1;
  D3C   :    6;
  D3D   :   C6;
  D3E   :   49;
  D3F   :   A4;
  D40   :   49;
  D41   :   C0;
  D42   :   FF;
  D43   :   F0;
  D44   :    3;
  D45   :   4C;
  D46   :   B0;
  D47   :   8C;
  D48   :   A9;
  D49   :    F;
  D4A   :   85;
  D4B   :   80;
  D4C   :   A5;
  D4D   :   47;
  D4E   :   F0;
  D4F   :    5;
  D50   :   C6;
  D51   :   87;
  D52   :   4C;
  D53   :   57;
  D54   :   8D;
  D55   :   E6;
  D56   :   87;
  D57   :   60;
  D58   :   A9;
  D59   :    0;
  D5A   :   85;
  D5B   :   87;
  D5C   :   E6;
  D5D   :   97;
  D5E   :   60;
  D5F   :   A5;
  D60   :   A8;
  D61   :   F0;
  D62   :    5;
  D63   :   E6;
  D64   :   97;
  D65   :   4C;
  D66   :   78;
  D67   :   8D;
  D68   :   A9;
  D69   :    0;
  D6A   :   85;
  D6B   :   A1;
  D6C   :   20;
  D6D   :   28;
  D6E   :   87;
  D6F   :   20;
  D70   :   79;
  D71   :   8D;
  D72   :   20;
  D73   :   C8;
  D74   :   8D;
  D75   :   20;
  D76   :   34;
  D77   :   8E;
  D78   :   60;
  D79   :   A5;
  D7A   :   43;
  D7B   :   29;
  D7C   :    1;
  D7D   :   F0;
  D7E   :    8;
  D7F   :   A5;
  D80   :   5C;
  D81   :   29;
  D82   :    F;
  D83   :   C9;
  D84   :    4;
  D85   :   F0;
  D86   :   16;
  D87   :   E6;
  D88   :   92;
  D89   :   A5;
  D8A   :   8A;
  D8B   :   85;
  D8C   :   A0;
  D8D   :   A6;
  D8E   :   8B;
  D8F   :   BD;
  D90   :   96;
  D91   :   A3;
  D92   :   18;
  D93   :   65;
  D94   :   A0;
  D95   :   AA;
  D96   :   BD;
  D97   :   9E;
  D98   :   A7;
  D99   :   C5;
  D9A   :   92;
  D9B   :   B0;
  D9C   :   2A;
  D9D   :   C6;
  D9E   :   86;
  D9F   :   A9;
  DA0   :    0;
  DA1   :   85;
  DA2   :   92;
  DA3   :   20;
  DA4   :   DC;
  DA5   :   90;
  DA6   :   D0;
  DA7   :    6;
  DA8   :   A5;
  DA9   :   86;
  DAA   :   C9;
  DAB   :   FF;
  DAC   :   D0;
  DAD   :   19;
  DAE   :   E6;
  DAF   :   86;
  DB0   :   A9;
  DB1   :    7;
  DB2   :   8D;
  DB3   :   F1;
  DB4   :    6;
  DB5   :   20;
  DB6   :   5B;
  DB7   :   8F;
  DB8   :   AD;
  DB9   :   40;
  DBA   :    7;
  DBB   :   F0;
  DBC   :    5;
  DBD   :   A5;
  DBE   :   53;
  DBF   :   48;
  DC0   :   48;
  DC1   :   48;
  DC2   :   E6;
  DC3   :   97;
  DC4   :   4C;
  DC5   :   C7;
  DC6   :   8D;
  DC7   :   60;
  DC8   :   A5;
  DC9   :   5B;
  DCA   :   29;
  DCB   :    3;
  DCC   :   D0;
  DCD   :   15;
  DCE   :   A5;
  DCF   :   5C;
  DD0   :   29;
  DD1   :    3;
  DD2   :   F0;
  DD3   :   5F;
  DD4   :   E6;
  DD5   :   93;
  DD6   :   A5;
  DD7   :   93;
  DD8   :   C9;
  DD9   :    D;
  DDA   :   30;
  DDB   :   57;
  DDC   :   A9;
  DDD   :    8;
  DDE   :   85;
  DDF   :   93;
  DE0   :   4C;
  DE1   :   EC;
  DE2   :   8D;
  DE3   :   A9;
  DE4   :    0;
  DE5   :   85;
  DE6   :   93;
  DE7   :   A9;
  DE8   :    3;
  DE9   :   8D;
  DEA   :   F1;
  DEB   :    6;
  DEC   :   A5;
  DED   :   5C;
  DEE   :   29;
  DEF   :    1;
  DF0   :   F0;
  DF1   :   20;
  DF2   :   A5;
  DF3   :   A5;
  DF4   :   29;
  DF5   :    1;
  DF6   :   18;
  DF7   :   69;
  DF8   :    6;
  DF9   :   C5;
  DFA   :   85;
  DFB   :   F0;
  DFC   :   15;
  DFD   :   E6;
  DFE   :   85;
  DFF   :   20;
  E00   :   DC;
  E01   :   90;
  E02   :   D0;
  E03   :    8;
  E04   :   A9;
  E05   :    3;
  E06   :   8D;
  E07   :   F1;
  E08   :    6;
  E09   :   4C;
  E0A   :   12;
  E0B   :   8E;
  E0C   :   C6;
  E0D   :   85;
  E0E   :   A9;
  E0F   :    C;
  E10   :   85;
  E11   :   93;
  E12   :   A5;
  E13   :   5C;
  E14   :   29;
  E15   :    2;
  E16   :   F0;
  E17   :   1B;
  E18   :   A5;
  E19   :   85;
  E1A   :   C9;
  E1B   :    0;
  E1C   :   F0;
  E1D   :   15;
  E1E   :   C6;
  E1F   :   85;
  E20   :   20;
  E21   :   DC;
  E22   :   90;
  E23   :   D0;
  E24   :    8;
  E25   :   A9;
  E26   :    3;
  E27   :   8D;
  E28   :   F1;
  E29   :    6;
  E2A   :   4C;
  E2B   :   33;
  E2C   :   8E;
  E2D   :   E6;
  E2E   :   85;
  E2F   :   A9;
  E30   :    C;
  E31   :   85;
  E32   :   93;
  E33   :   60;
  E34   :   A5;
  E35   :   A5;
  E36   :   85;
  E37   :   4A;
  E38   :   A5;
  E39   :   85;
  E3A   :   85;
  E3B   :   4B;
  E3C   :   A5;
  E3D   :   5B;
  E3E   :   29;
  E3F   :   80;
  E40   :   F0;
  E41   :   10;
  E42   :   A9;
  E43   :    5;
  E44   :   8D;
  E45   :   F1;
  E46   :    6;
  E47   :   C6;
  E48   :   A5;
  E49   :   A5;
  E4A   :   A5;
  E4B   :   29;
  E4C   :    3;
  E4D   :   85;
  E4E   :   A5;
  E4F   :   20;
  E50   :   69;
  E51   :   8E;
  E52   :   A5;
  E53   :   5B;
  E54   :   29;
  E55   :   40;
  E56   :   F0;
  E57   :   10;
  E58   :   A9;
  E59   :    5;
  E5A   :   8D;
  E5B   :   F1;
  E5C   :    6;
  E5D   :   E6;
  E5E   :   A5;
  E5F   :   A5;
  E60   :   A5;
  E61   :   29;
  E62   :    3;
  E63   :   85;
  E64   :   A5;
  E65   :   20;
  E66   :   69;
  E67   :   8E;
  E68   :   60;
  E69   :   A5;
  E6A   :   A5;
  E6B   :   29;
  E6C   :    1;
  E6D   :   D0;
  E6E   :   19;
  E6F   :   20;
  E70   :   DC;
  E71   :   90;
  E72   :   D0;
  E73   :   12;
  E74   :   A5;
  E75   :   5C;
  E76   :   29;
  E77   :    2;
  E78   :   F0;
  E79   :   1B;
  E7A   :   C6;
  E7B   :   85;
  E7C   :   20;
  E7D   :   DC;
  E7E   :   90;
  E7F   :   F0;
  E80   :   14;
  E81   :   E6;
  E82   :   85;
  E83   :   4C;
  E84   :   95;
  E85   :   8E;
  E86   :   C6;
  E87   :   85;
  E88   :   20;
  E89   :   DC;
  E8A   :   90;
  E8B   :   F0;
  E8C   :    8;
  E8D   :   A5;
  E8E   :   4A;
  E8F   :   85;
  E90   :   A5;
  E91   :   A5;
  E92   :   4B;
  E93   :   85;
  E94   :   85;
  E95   :   60;
  E96   :   A5;
  E97   :   9A;
  E98   :   85;
  E99   :   81;
  E9A   :   A5;
  E9B   :   9B;
  E9C   :   85;
  E9D   :   82;
  E9E   :   A5;
  E9F   :   9C;
  EA0   :   85;
  EA1   :   83;
  EA2   :   A5;
  EA3   :   9D;
  EA4   :   85;
  EA5   :   84;
  EA6   :   A9;
  EA7   :    0;
  EA8   :   85;
  EA9   :   A5;
  EAA   :   A5;
  EAB   :   A3;
  EAC   :   85;
  EAD   :   A6;
  EAE   :   AD;
  EAF   :   41;
  EB0   :    7;
  EB1   :   F0;
  EB2   :    9;
  EB3   :   A6;
  EB4   :   A7;
  EB5   :   BD;
  EB6   :   80;
  EB7   :   CF;
  EB8   :   AA;
  EB9   :   4C;
  EBA   :   C2;
  EBB   :   8E;
  EBC   :   A6;
  EBD   :   A7;
  EBE   :   BD;
  EBF   :   80;
  EC0   :    7;
  EC1   :   AA;
  EC2   :   BD;
  EC3   :    6;
  EC4   :   A8;
  EC5   :   85;
  EC6   :   9A;
  EC7   :   BD;
  EC8   :    F;
  EC9   :   A8;
  ECA   :   85;
  ECB   :   9B;
  ECC   :   E6;
  ECD   :   A7;
  ECE   :   A5;
  ECF   :   A7;
  ED0   :   29;
  ED1   :   7F;
  ED2   :   85;
  ED3   :   A7;
  ED4   :   A9;
  ED5   :    0;
  ED6   :   85;
  ED7   :   7D;
  ED8   :   85;
  ED9   :   A2;
  EDA   :   A9;
  EDB   :    2;
  EDC   :   85;
  EDD   :   A3;
  EDE   :   A9;
  EDF   :    3;
  EE0   :   85;
  EE1   :   85;
  EE2   :   A9;
  EE3   :    F;
  EE4   :   85;
  EE5   :   86;
  EE6   :   E6;
  EE7   :   90;
  EE8   :   A5;
  EE9   :   90;
  EEA   :   29;
  EEB   :    F;
  EEC   :   C9;
  EED   :    A;
  EEE   :   90;
  EEF   :    7;
  EF0   :   A5;
  EF1   :   90;
  EF2   :   18;
  EF3   :   69;
  EF4   :    6;
  EF5   :   85;
  EF6   :   90;
  EF7   :   A5;
  EF8   :   90;
  EF9   :   29;
  EFA   :   F0;
  EFB   :   C9;
  EFC   :   A0;
  EFD   :   90;
  EFE   :    9;
  EFF   :   A5;
  F00   :   90;
  F01   :   18;
  F02   :   69;
  F03   :   60;
  F04   :   85;
  F05   :   90;
  F06   :   E6;
  F07   :   91;
  F08   :   A5;
  F09   :   91;
  F0A   :   29;
  F0B   :    F;
  F0C   :   C9;
  F0D   :    A;
  F0E   :   90;
  F0F   :    7;
  F10   :   A5;
  F11   :   91;
  F12   :   18;
  F13   :   69;
  F14   :    6;
  F15   :   85;
  F16   :   91;
  F17   :   A5;
  F18   :   91;
  F19   :   29;
  F1A   :   F0;
  F1B   :   C9;
  F1C   :   A0;
  F1D   :   90;
  F1E   :    B;
  F1F   :   A5;
  F20   :   91;
  F21   :   18;
  F22   :   69;
  F23   :   60;
  F24   :   A9;
  F25   :   99;
  F26   :   85;
  F27   :   90;
  F28   :   85;
  F29   :   91;
  F2A   :   AD;
  F2B   :   23;
  F2C   :    7;
  F2D   :   D0;
  F2E   :   21;
  F2F   :   A5;
  F30   :   90;
  F31   :   C9;
  F32   :    0;
  F33   :   F0;
  F34   :    6;
  F35   :   29;
  F36   :    F;
  F37   :   C9;
  F38   :    0;
  F39   :   D0;
  F3A   :   15;
  F3B   :   A5;
  F3C   :   8A;
  F3D   :   C9;
  F3E   :   31;
  F3F   :   F0;
  F40   :    F;
  F41   :   E6;
  F42   :   8A;
  F43   :   A9;
  F44   :    6;
  F45   :   8D;
  F46   :   F1;
  F47   :    6;
  F48   :   A5;
  F49   :   52;
  F4A   :    9;
  F4B   :   12;
  F4C   :    9;
  F4D   :    2;
  F4E   :   85;
  F4F   :   52;
  F50   :   A9;
  F51   :    0;
  F52   :   85;
  F53   :   8F;
  F54   :   A5;
  F55   :   52;
  F56   :    9;
  F57   :    1;
  F58   :   85;
  F59   :   52;
  F5A   :   60;
  F5B   :   A6;
  F5C   :   86;
  F5D   :   BD;
  F5E   :   7D;
  F5F   :   A4;
  F60   :   18;
  F61   :   65;
  F62   :   85;
  F63   :   85;
  F64   :   47;
  F65   :   A5;
  F66   :   A6;
  F67   :   38;
  F68   :   E9;
  F69   :    2;
  F6A   :    A;
  F6B   :    A;
  F6C   :    A;
  F6D   :    A;
  F6E   :   85;
  F6F   :   48;
  F70   :   A5;
  F71   :   A5;
  F72   :    A;
  F73   :    A;
  F74   :   18;
  F75   :   65;
  F76   :   48;
  F77   :   AA;
  F78   :   A9;
  F79   :    0;
  F7A   :   85;
  F7B   :   49;
  F7C   :   BD;
  F7D   :   E5;
  F7E   :   A4;
  F7F   :   C9;
  F80   :   63;
  F81   :   F0;
  F82   :   24;
  F83   :   18;
  F84   :   65;
  F85   :   47;
  F86   :   85;
  F87   :   57;
  F88   :   C9;
  F89   :   80;
  F8A   :   B0;
  F8B   :   12;
  F8C   :   BD;
  F8D   :   15;
  F8E   :   A5;
  F8F   :   18;
  F90   :   85;
  F91   :   4A;
  F92   :   A4;
  F93   :   49;
  F94   :   B9;
  F95   :   81;
  F96   :    0;
  F97   :   18;
  F98   :   65;
  F99   :   4A;
  F9A   :   A0;
  F9B   :    0;
  F9C   :   91;
  F9D   :   57;
  F9E   :   E8;
  F9F   :   E6;
  FA0   :   49;
  FA1   :   A5;
  FA2   :   49;
  FA3   :   C9;
  FA4   :    4;
  FA5   :   D0;
  FA6   :   D5;
  FA7   :   A5;
  FA8   :   86;
  FA9   :   49;
  FAA   :    F;
  FAB   :   85;
  FAC   :   80;
  FAD   :   60;
  FAE   :   AD;
  FAF   :   1E;
  FB0   :    3;
  FB1   :   8D;
  FB2   :   32;
  FB3   :    7;
  FB4   :   AD;
  FB5   :   9E;
  FB6   :    3;
  FB7   :   8D;
  FB8   :   33;
  FB9   :    7;
  FBA   :   AD;
  FBB   :   16;
  FBC   :    3;
  FBD   :   8D;
  FBE   :   34;
  FBF   :    7;
  FC0   :   AD;
  FC1   :   96;
  FC2   :    3;
  FC3   :   8D;
  FC4   :   35;
  FC5   :    7;
  FC6   :   AD;
  FC7   :    B;
  FC8   :    3;
  FC9   :   8D;
  FCA   :   36;
  FCB   :    7;
  FCC   :   AD;
  FCD   :   8B;
  FCE   :    3;
  FCF   :   8D;
  FD0   :   37;
  FD1   :    7;
  FD2   :   60;
  FD3   :   AD;
  FD4   :   32;
  FD5   :    7;
  FD6   :   8D;
  FD7   :   1E;
  FD8   :    3;
  FD9   :   AD;
  FDA   :   33;
  FDB   :    7;
  FDC   :   8D;
  FDD   :   9E;
  FDE   :    3;
  FDF   :   AD;
  FE0   :   34;
  FE1   :    7;
  FE2   :   8D;
  FE3   :   16;
  FE4   :    3;
  FE5   :   AD;
  FE6   :   35;
  FE7   :    7;
  FE8   :   8D;
  FE9   :   96;
  FEA   :    3;
  FEB   :   AD;
  FEC   :   36;
  FED   :    7;
  FEE   :   8D;
  FEF   :    B;
  FF0   :    3;
  FF1   :   AD;
  FF2   :   37;
  FF3   :    7;
  FF4   :   8D;
  FF5   :   8B;
  FF6   :    3;
  FF7   :   60;
  FF8   :   A9;
  FF9   :    4;
  FFA   :   85;
  FFB   :   46;
  FFC   :   60;
  FFD   :   AD;
  FFE   :   27;
  FFF   :    7;
 1000   :   C9;
 1001   :    1;
 1002   :   D0;
 1003   :   20;
 1004   :   A6;
 1005   :   AD;
 1006   :   BD;
 1007   :   28;
 1008   :   A2;
 1009   :   AA;
 100A   :   A5;
 100B   :   8B;
 100C   :   18;
 100D   :   6D;
 100E   :   2A;
 100F   :    7;
 1010   :   8D;
 1011   :   2A;
 1012   :    7;
 1013   :   EE;
 1014   :   2A;
 1015   :    7;
 1016   :   20;
 1017   :   25;
 1018   :   90;
 1019   :   CA;
 101A   :   D0;
 101B   :   EE;
 101C   :   A5;
 101D   :   52;
 101E   :    9;
 101F   :    4;
 1020   :   85;
 1021   :   52;
 1022   :   E6;
 1023   :   AD;
 1024   :   60;
 1025   :   AD;
 1026   :   29;
 1027   :    7;
 1028   :   C9;
 1029   :    A;
 102A   :   30;
 102B   :    9;
 102C   :   38;
 102D   :   E9;
 102E   :    A;
 102F   :   8D;
 1030   :   29;
 1031   :    7;
 1032   :   EE;
 1033   :   2A;
 1034   :    7;
 1035   :   AD;
 1036   :   2A;
 1037   :    7;
 1038   :   C9;
 1039   :    A;
 103A   :   30;
 103B   :    9;
 103C   :   38;
 103D   :   E9;
 103E   :    A;
 103F   :   8D;
 1040   :   2A;
 1041   :    7;
 1042   :   EE;
 1043   :   2B;
 1044   :    7;
 1045   :   AD;
 1046   :   2B;
 1047   :    7;
 1048   :   C9;
 1049   :    A;
 104A   :   30;
 104B   :    9;
 104C   :   38;
 104D   :   E9;
 104E   :    A;
 104F   :   8D;
 1050   :   2B;
 1051   :    7;
 1052   :   EE;
 1053   :   2C;
 1054   :    7;
 1055   :   AD;
 1056   :   2C;
 1057   :    7;
 1058   :   C9;
 1059   :    A;
 105A   :   D0;
 105B   :    8;
 105C   :   A9;
 105D   :    0;
 105E   :   8D;
 105F   :   2C;
 1060   :    7;
 1061   :   EE;
 1062   :   2D;
 1063   :    7;
 1064   :   AD;
 1065   :   2D;
 1066   :    7;
 1067   :   C9;
 1068   :    A;
 1069   :   D0;
 106A   :    8;
 106B   :   A9;
 106C   :    0;
 106D   :   8D;
 106E   :   2D;
 106F   :    7;
 1070   :   EE;
 1071   :   2E;
 1072   :    7;
 1073   :   AD;
 1074   :   2E;
 1075   :    7;
 1076   :   C9;
 1077   :    A;
 1078   :   D0;
 1079   :    3;
 107A   :   CE;
 107B   :   2E;
 107C   :    7;
 107D   :   60;
 107E   :   A2;
 107F   :    0;
 1080   :   BD;
 1081   :    0;
 1082   :    3;
 1083   :   95;
 1084   :   80;
 1085   :   E8;
 1086   :   E0;
 1087   :   30;
 1088   :   D0;
 1089   :   F6;
 108A   :   A5;
 108B   :   F5;
 108C   :   85;
 108D   :   5B;
 108E   :   A5;
 108F   :   F7;
 1090   :   85;
 1091   :   5C;
 1092   :   A9;
 1093   :    0;
 1094   :   85;
 1095   :   57;
 1096   :   A9;
 1097   :    4;
 1098   :   85;
 1099   :   58;
 109A   :   60;
 109B   :   A2;
 109C   :    0;
 109D   :   BD;
 109E   :   80;
 109F   :    3;
 10A0   :   95;
 10A1   :   80;
 10A2   :   E8;
 10A3   :   E0;
 10A4   :   30;
 10A5   :   D0;
 10A6   :   F6;
 10A7   :   A5;
 10A8   :   F6;
 10A9   :   85;
 10AA   :   5B;
 10AB   :   A5;
 10AC   :   F8;
 10AD   :   85;
 10AE   :   5C;
 10AF   :   A9;
 10B0   :    0;
 10B1   :   85;
 10B2   :   57;
 10B3   :   A9;
 10B4   :    5;
 10B5   :   85;
 10B6   :   58;
 10B7   :   60;
 10B8   :   A2;
 10B9   :    0;
 10BA   :   B5;
 10BB   :   80;
 10BC   :   9D;
 10BD   :    0;
 10BE   :    3;
 10BF   :   E8;
 10C0   :   E0;
 10C1   :   30;
 10C2   :   D0;
 10C3   :   F6;
 10C4   :   60;
 10C5   :   A2;
 10C6   :    0;
 10C7   :   B5;
 10C8   :   80;
 10C9   :   9D;
 10CA   :   80;
 10CB   :    3;
 10CC   :   E8;
 10CD   :   E0;
 10CE   :   30;
 10CF   :   D0;
 10D0   :   F6;
 10D1   :   60;
 10D2   :   A9;
 10D3   :   FF;
 10D4   :   A2;
 10D5   :    4;
 10D6   :   A0;
 10D7   :    5;
 10D8   :   20;
 10D9   :   9D;
 10DA   :   B8;
 10DB   :   60;
 10DC   :   A6;
 10DD   :   A6;
 10DE   :   CA;
 10DF   :   CA;
 10E0   :   A5;
 10E1   :   A5;
 10E2   :   29;
 10E3   :    1;
 10E4   :   D0;
 10E5   :   13;
 10E6   :   BD;
 10E7   :   5E;
 10E8   :   A4;
 10E9   :   18;
 10EA   :   65;
 10EB   :   85;
 10EC   :   30;
 10ED   :   4C;
 10EE   :   BD;
 10EF   :   61;
 10F0   :   A4;
 10F1   :   18;
 10F2   :   65;
 10F3   :   85;
 10F4   :   10;
 10F5   :   44;
 10F6   :   4C;
 10F7   :    1;
 10F8   :   91;
 10F9   :   BD;
 10FA   :   64;
 10FB   :   A4;
 10FC   :   18;
 10FD   :   65;
 10FE   :   86;
 10FF   :   30;
 1100   :   39;
 1101   :   A9;
 1102   :    0;
 1103   :   85;
 1104   :   57;
 1105   :   A6;
 1106   :   86;
 1107   :   BD;
 1108   :   7D;
 1109   :   A4;
 110A   :   18;
 110B   :   65;
 110C   :   85;
 110D   :   85;
 110E   :   47;
 110F   :   A5;
 1110   :   A6;
 1111   :   38;
 1112   :   E9;
 1113   :    2;
 1114   :    A;
 1115   :   85;
 1116   :   49;
 1117   :   A5;
 1118   :   A5;
 1119   :   29;
 111A   :    1;
 111B   :   18;
 111C   :   65;
 111D   :   49;
 111E   :    A;
 111F   :    A;
 1120   :   AA;
 1121   :   A9;
 1122   :    4;
 1123   :   85;
 1124   :   48;
 1125   :   BD;
 1126   :   CD;
 1127   :   A4;
 1128   :   18;
 1129   :   65;
 112A   :   47;
 112B   :   A8;
 112C   :   B1;
 112D   :   57;
 112E   :   C9;
 112F   :   FF;
 1130   :   D0;
 1131   :    8;
 1132   :   E8;
 1133   :   C6;
 1134   :   48;
 1135   :   D0;
 1136   :   EE;
 1137   :   A9;
 1138   :    0;
 1139   :   60;
 113A   :   A9;
 113B   :   FF;
 113C   :   60;
 113D   :   AD;
 113E   :   41;
 113F   :    7;
 1140   :   D0;
 1141   :    4;
 1142   :   20;
 1143   :   D0;
 1144   :   B7;
 1145   :   60;
 1146   :   AD;
 1147   :   41;
 1148   :    7;
 1149   :   C9;
 114A   :   FF;
 114B   :   F0;
 114C   :   4C;
 114D   :   20;
 114E   :   D0;
 114F   :   B7;
 1150   :   A5;
 1151   :   F5;
 1152   :   C9;
 1153   :   10;
 1154   :   F0;
 1155   :   3E;
 1156   :   A5;
 1157   :   69;
 1158   :   F0;
 1159   :    5;
 115A   :   C6;
 115B   :   69;
 115C   :   4C;
 115D   :   86;
 115E   :   91;
 115F   :   A2;
 1160   :    0;
 1161   :   A1;
 1162   :   36;
 1163   :   85;
 1164   :   47;
 1165   :   20;
 1166   :   CB;
 1167   :   91;
 1168   :   A5;
 1169   :   70;
 116A   :   45;
 116B   :   47;
 116C   :   25;
 116D   :   47;
 116E   :   85;
 116F   :   F5;
 1170   :   A5;
 1171   :   47;
 1172   :   85;
 1173   :   70;
 1174   :   A2;
 1175   :    0;
 1176   :   A1;
 1177   :   36;
 1178   :   85;
 1179   :   69;
 117A   :   20;
 117B   :   CB;
 117C   :   91;
 117D   :   A5;
 117E   :   37;
 117F   :   C9;
 1180   :   D2;
 1181   :   F0;
 1182   :    C;
 1183   :   4C;
 1184   :   8A;
 1185   :   91;
 1186   :   A9;
 1187   :    0;
 1188   :   85;
 1189   :   F5;
 118A   :   A5;
 118B   :   70;
 118C   :   85;
 118D   :   F7;
 118E   :   60;
 118F   :   A9;
 1190   :    0;
 1191   :   85;
 1192   :   46;
 1193   :   60;
 1194   :   A9;
 1195   :   D0;
 1196   :   85;
 1197   :   37;
 1198   :   60;
 1199   :   20;
 119A   :   D0;
 119B   :   B7;
 119C   :   A5;
 119D   :   F7;
 119E   :   C5;
 119F   :   70;
 11A0   :   F0;
 11A1   :   1F;
 11A2   :   A2;
 11A3   :    0;
 11A4   :   A5;
 11A5   :   70;
 11A6   :   81;
 11A7   :   36;
 11A8   :   20;
 11A9   :   CB;
 11AA   :   91;
 11AB   :   A5;
 11AC   :   69;
 11AD   :   81;
 11AE   :   36;
 11AF   :   20;
 11B0   :   CB;
 11B1   :   91;
 11B2   :   A5;
 11B3   :   37;
 11B4   :   C9;
 11B5   :   D2;
 11B6   :   F0;
 11B7   :    C;
 11B8   :   A5;
 11B9   :   F7;
 11BA   :   85;
 11BB   :   70;
 11BC   :   A9;
 11BD   :    0;
 11BE   :   85;
 11BF   :   69;
 11C0   :   60;
 11C1   :   E6;
 11C2   :   69;
 11C3   :   60;
 11C4   :   A9;
 11C5   :    0;
 11C6   :   85;
 11C7   :   36;
 11C8   :   85;
 11C9   :   46;
 11CA   :   60;
 11CB   :   A5;
 11CC   :   36;
 11CD   :   18;
 11CE   :   69;
 11CF   :    1;
 11D0   :   85;
 11D1   :   36;
 11D2   :   A9;
 11D3   :    0;
 11D4   :   65;
 11D5   :   37;
 11D6   :   85;
 11D7   :   37;
 11D8   :   60;
 11D9   :   A9;
 11DA   :   B9;
 11DB   :   85;
 11DC   :   48;
 11DD   :   A0;
 11DE   :    0;
 11DF   :   84;
 11E0   :   47;
 11E1   :   84;
 11E2   :   49;
 11E3   :   8C;
 11E4   :   40;
 11E5   :    7;
 11E6   :   B1;
 11E7   :   47;
 11E8   :   18;
 11E9   :   65;
 11EA   :   49;
 11EB   :   85;
 11EC   :   49;
 11ED   :   C8;
 11EE   :   D0;
 11EF   :   F6;
 11F0   :   E6;
 11F1   :   48;
 11F2   :   A5;
 11F3   :   48;
 11F4   :   C9;
 11F5   :   BE;
 11F6   :   D0;
 11F7   :   EE;
 11F8   :   A5;
 11F9   :   49;
 11FA   :   C9;
 11FB   :   6B;
 11FC   :   F0;
 11FD   :    5;
 11FE   :   A9;
 11FF   :   FF;
 1200   :   8D;
 1201   :   40;
 1202   :    7;
 1203   :   60;
 1204   :   A5;
 1205   :   94;
 1206   :   F0;
 1207   :    9;
 1208   :   A5;
 1209   :   80;
 120A   :   C9;
 120B   :   FF;
 120C   :   F0;
 120D   :    3;
 120E   :   4C;
 120F   :   E3;
 1210   :   92;
 1211   :   A9;
 1212   :    0;
 1213   :   85;
 1214   :   59;
 1215   :   A5;
 1216   :   59;
 1217   :   85;
 1218   :   5A;
 1219   :   A9;
 121A   :    0;
 121B   :   85;
 121C   :   47;
 121D   :   A4;
 121E   :   59;
 121F   :   B1;
 1220   :   57;
 1221   :   85;
 1222   :   48;
 1223   :   C9;
 1224   :   F0;
 1225   :   90;
 1226   :    3;
 1227   :   4C;
 1228   :   B6;
 1229   :   92;
 122A   :   A5;
 122B   :   48;
 122C   :   29;
 122D   :    F;
 122E   :   85;
 122F   :   48;
 1230   :   E6;
 1231   :   5A;
 1232   :   A5;
 1233   :   5A;
 1234   :   29;
 1235   :    7;
 1236   :   F0;
 1237   :    F;
 1238   :   A4;
 1239   :   5A;
 123A   :   B1;
 123B   :   57;
 123C   :   29;
 123D   :    F;
 123E   :   C5;
 123F   :   48;
 1240   :   D0;
 1241   :    5;
 1242   :   E6;
 1243   :   47;
 1244   :   4C;
 1245   :   30;
 1246   :   92;
 1247   :   A5;
 1248   :   47;
 1249   :   C9;
 124A   :    3;
 124B   :   30;
 124C   :   62;
 124D   :   E6;
 124E   :   8F;
 124F   :   85;
 1250   :   8E;
 1251   :   20;
 1252   :   54;
 1253   :   94;
 1254   :   A5;
 1255   :   A1;
 1256   :   18;
 1257   :   65;
 1258   :   47;
 1259   :   85;
 125A   :   A1;
 125B   :   E6;
 125C   :   A1;
 125D   :   A5;
 125E   :   59;
 125F   :   29;
 1260   :   78;
 1261   :   4A;
 1262   :   4A;
 1263   :   4A;
 1264   :   85;
 1265   :   95;
 1266   :   A5;
 1267   :   5A;
 1268   :   85;
 1269   :   49;
 126A   :   A5;
 126B   :   59;
 126C   :   85;
 126D   :   5A;
 126E   :   A4;
 126F   :   5A;
 1270   :   B1;
 1271   :   57;
 1272   :   29;
 1273   :   F0;
 1274   :   C9;
 1275   :   80;
 1276   :   D0;
 1277   :    0;
 1278   :   A9;
 1279   :    2;
 127A   :   8D;
 127B   :   F1;
 127C   :    6;
 127D   :   B1;
 127E   :   57;
 127F   :   29;
 1280   :   F0;
 1281   :   C9;
 1282   :   D0;
 1283   :   D0;
 1284   :   14;
 1285   :   A9;
 1286   :    4;
 1287   :   8D;
 1288   :   F1;
 1289   :    6;
 128A   :   20;
 128B   :   23;
 128C   :   94;
 128D   :   A9;
 128E   :   10;
 128F   :    5;
 1290   :   52;
 1291   :   85;
 1292   :   52;
 1293   :   A5;
 1294   :   A4;
 1295   :   D0;
 1296   :    2;
 1297   :   E6;
 1298   :   9E;
 1299   :   B1;
 129A   :   57;
 129B   :   29;
 129C   :    F;
 129D   :    9;
 129E   :   B0;
 129F   :   91;
 12A0   :   57;
 12A1   :   E6;
 12A2   :   5A;
 12A3   :   A4;
 12A4   :   5A;
 12A5   :   C4;
 12A6   :   49;
 12A7   :   D0;
 12A8   :   C5;
 12A9   :   E6;
 12AA   :   94;
 12AB   :   A5;
 12AC   :   49;
 12AD   :   85;
 12AE   :   5A;
 12AF   :   A5;
 12B0   :   5A;
 12B1   :   85;
 12B2   :   59;
 12B3   :   4C;
 12B4   :   B8;
 12B5   :   92;
 12B6   :   E6;
 12B7   :   59;
 12B8   :   A5;
 12B9   :   59;
 12BA   :   29;
 12BB   :    7;
 12BC   :   F0;
 12BD   :    7;
 12BE   :   C9;
 12BF   :    5;
 12C0   :   10;
 12C1   :    3;
 12C2   :   4C;
 12C3   :   15;
 12C4   :   92;
 12C5   :   A5;
 12C6   :   59;
 12C7   :   C9;
 12C8   :   80;
 12C9   :   F0;
 12CA   :   16;
 12CB   :   29;
 12CC   :    7;
 12CD   :   F0;
 12CE   :    9;
 12CF   :   A5;
 12D0   :   59;
 12D1   :   29;
 12D2   :   78;
 12D3   :   18;
 12D4   :   69;
 12D5   :    8;
 12D6   :   85;
 12D7   :   59;
 12D8   :   A5;
 12D9   :   59;
 12DA   :   C9;
 12DB   :   80;
 12DC   :   F0;
 12DD   :    3;
 12DE   :   4C;
 12DF   :   15;
 12E0   :   92;
 12E1   :   E6;
 12E2   :   87;
 12E3   :   60;
 12E4   :   A0;
 12E5   :   7F;
 12E6   :   84;
 12E7   :   47;
 12E8   :   A4;
 12E9   :   47;
 12EA   :   B1;
 12EB   :   57;
 12EC   :   29;
 12ED   :   F0;
 12EE   :   C9;
 12EF   :   B0;
 12F0   :   D0;
 12F1   :    9;
 12F2   :   B1;
 12F3   :   57;
 12F4   :    9;
 12F5   :   F0;
 12F6   :   91;
 12F7   :   57;
 12F8   :   4C;
 12F9   :    2;
 12FA   :   94;
 12FB   :   C9;
 12FC   :   40;
 12FD   :   D0;
 12FE   :   1F;
 12FF   :   A5;
 1300   :   47;
 1301   :   18;
 1302   :   69;
 1303   :    8;
 1304   :   A8;
 1305   :   B1;
 1306   :   57;
 1307   :   29;
 1308   :   F0;
 1309   :   C9;
 130A   :   90;
 130B   :   F0;
 130C   :    E;
 130D   :   C9;
 130E   :   50;
 130F   :   F0;
 1310   :    A;
 1311   :   A4;
 1312   :   47;
 1313   :   B1;
 1314   :   57;
 1315   :   29;
 1316   :    F;
 1317   :    9;
 1318   :   80;
 1319   :   91;
 131A   :   57;
 131B   :   4C;
 131C   :    2;
 131D   :   94;
 131E   :   C9;
 131F   :   50;
 1320   :   D0;
 1321   :   1F;
 1322   :   A5;
 1323   :   47;
 1324   :   38;
 1325   :   E9;
 1326   :    8;
 1327   :   A8;
 1328   :   B1;
 1329   :   57;
 132A   :   29;
 132B   :   F0;
 132C   :   C9;
 132D   :   90;
 132E   :   F0;
 132F   :    E;
 1330   :   C9;
 1331   :   40;
 1332   :   F0;
 1333   :    A;
 1334   :   A4;
 1335   :   47;
 1336   :   B1;
 1337   :   57;
 1338   :   29;
 1339   :    F;
 133A   :    9;
 133B   :   80;
 133C   :   91;
 133D   :   57;
 133E   :   4C;
 133F   :    2;
 1340   :   94;
 1341   :   C9;
 1342   :   60;
 1343   :   D0;
 1344   :   1F;
 1345   :   A5;
 1346   :   47;
 1347   :   18;
 1348   :   69;
 1349   :    1;
 134A   :   A8;
 134B   :   B1;
 134C   :   57;
[...]
 7B1F   :    2;
 7B20   :    2;
 7B21   :    0;
 7B22   :   9F;
 7B23   :   A0;
 7B24   :    0;
 7B25   :   C3;
 7B26   :   B3;
 7B27   :   2A;
 7B28   :   42;
 7B29   :   FF;
 7B2A   :   2A;
 7B2B   :   B2;
 7B2C   :   42;
 7B2D   :   2A;
 7B2E   :    0;
 7B2F   :   C3;
 7B30   :   B2;
 7B31   :   44;
 7B32   :    4;
 7B33   :   81;
 7B34   :    4;
 7B35   :   FF;
 7B36   :   44;
 7B37   :    1;
 7B38   :   41;
 7B39   :   44;
 7B3A   :    0;
 7B3B   :   B9;
 7B3C   :    4;
 7B3D   :    4;
 7B3E   :    0;
 7B3F   :   C3;
 7B40   :   B2;
 7B41   :   44;
 7B42   :    4;
 7B43   :   81;
 7B44   :    4;
 7B45   :   FF;
 7B46   :   44;
 7B47   :    1;
 7B48   :   41;
 7B49   :   44;
 7B4A   :    0;
 7B4B   :   B3;
 7B4C   :   2A;
 7B4D   :   42;
 7B4E   :   2A;
 7B4F   :   42;
 7B50   :   4A;
 7B51   :   4C;
 7B52   :   B8;
 7B53   :   3A;
 7B54   :   38;
 7B55   :   34;
 7B56   :   BC;
 7B57   :    2;
 7B58   :   B8;
 7B59   :   30;
 7B5A   :   9F;
 7B5B   :    0;
 7B5C   :    0;
 7B5D   :   B8;
 7B5E   :   2E;
 7B5F   :   2A;
 7B60   :   BC;
 7B61   :    2;
 7B62   :    0;
 7B63   :   C3;
 7B64   :   B1;
 7B65   :   41;
 7B66   :    1;
 7B67   :    4;
 7B68   :    4;
 7B69   :   81;
 7B6A   :    4;
 7B6B   :    7;
 7B6C   :    1;
 7B6D   :   FF;
 7B6E   :   B8;
 7B6F   :   44;
 7B70   :    4;
 7B71   :    7;
 7B72   :   BC;
 7B73   :    1;
 7B74   :   B8;
 7B75   :   41;
 7B76   :   41;
 7B77   :   81;
 7B78   :   BC;
 7B79   :    1;
 7B7A   :    0;
 7B7B   :   95;
 7B7C   :   FB;
 7B7D   :   AD;
 7B7E   :   FB;
 7B7F   :   C5;
 7B80   :   FB;
 7B81   :   FF;
 7B82   :   FF;
 7B83   :   7F;
 7B84   :   FB;
 7B85   :   9E;
 7B86   :   FB;
 7B87   :   F0;
 7B88   :   FB;
 7B89   :   FF;
 7B8A   :   FF;
 7B8B   :   87;
 7B8C   :   FB;
 7B8D   :   B5;
 7B8E   :   FB;
 7B8F   :   17;
 7B90   :   FC;
 7B91   :   FF;
 7B92   :   FF;
 7B93   :   8F;
 7B94   :   FB;
 7B95   :   9F;
 7B96   :   72;
 7B97   :   B1;
 7B98   :   C2;
 7B99   :   B7;
 7B9A   :   7A;
 7B9B   :   72;
 7B9C   :   FF;
 7B9D   :    0;
 7B9E   :   9F;
 7B9F   :   1E;
 7BA0   :   B1;
 7BA1   :   B7;
 7BA2   :   7A;
 7BA3   :   72;
 7BA4   :   9F;
 7BA5   :   1C;
 7BA6   :   B1;
 7BA7   :   B7;
 7BA8   :   7A;
 7BA9   :   72;
 7BAA   :   9F;
 7BAB   :   17;
 7BAC   :   B1;
 7BAD   :   C3;
 7BAE   :   B7;
 7BAF   :   7A;
 7BB0   :   72;
 7BB1   :   FF;
 7BB2   :   B3;
 7BB3   :    2;
 7BB4   :    0;
 7BB5   :   C5;
 7BB6   :   B7;
 7BB7   :    2;
 7BB8   :    2;
 7BB9   :   FF;
 7BBA   :   B3;
 7BBB   :    2;
 7BBC   :    0;
 7BBD   :   C5;
 7BBE   :   B7;
 7BBF   :    1;
 7BC0   :    1;
 7BC1   :   FF;
 7BC2   :   B3;
 7BC3   :    1;
 7BC4   :    0;
 7BC5   :   9F;
 7BC6   :   19;
 7BC7   :   B1;
 7BC8   :   B1;
 7BC9   :   68;
 7BCA   :   50;
 7BCB   :   5A;
 7BCC   :   50;
 7BCD   :   5E;
 7BCE   :   50;
 7BCF   :   58;
 7BD0   :   5A;
 7BD1   :   68;
 7BD2   :   50;
 7BD3   :   5A;
 7BD4   :   50;
 7BD5   :   5E;
 7BD6   :   50;
 7BD7   :   62;
 7BD8   :   5A;
 7BD9   :   5A;
 7BDA   :   50;
 7BDB   :   54;
 7BDC   :   50;
 7BDD   :   68;
 7BDE   :   50;
 7BDF   :   62;
 7BE0   :   50;
 7BE1   :   5A;
 7BE2   :   48;
 7BE3   :   4C;
 7BE4   :   50;
 7BE5   :   4C;
 7BE6   :   42;
 7BE7   :   4C;
 7BE8   :   3A;
 7BE9   :   9F;
 7BEA   :   B6;
 7BEB   :   B1;
 7BEC   :   B9;
 7BED   :    2;
 7BEE   :   82;
 7BEF   :    0;
 7BF0   :   9F;
 7BF1   :    8;
 7BF2   :   B0;
 7BF3   :   B1;
 7BF4   :   62;
 7BF5   :   64;
 7BF6   :   68;
 7BF7   :   6C;
 7BF8   :   B3;
 7BF9   :   68;
 7BFA   :   B1;
 7BFB   :   5A;
 7BFC   :   5E;
 7BFD   :   62;
 7BFE   :   64;
 7BFF   :   B3;
 7C00   :   62;
 7C01   :   B1;
 7C02   :   54;
 7C03   :   5A;
 7C04   :   B2;
 7C05   :   5A;
 7C06   :   B1;
 7C07   :   50;
 7C08   :   5A;
 7C09   :   B2;
 7C0A   :   5A;
 7C0B   :   B3;
 7C0C   :   4C;
 7C0D   :   B2;
 7C0E   :   4A;
 7C0F   :   50;
 7C10   :   9F;
 7C11   :   B6;
 7C12   :   B2;
 7C13   :   B9;
 7C14   :    2;
 7C15   :   84;
 7C16   :    0;
 7C17   :   9F;
 7C18   :   12;
 7C19   :    0;
 7C1A   :   B3;
 7C1B   :   72;
 7C1C   :   70;
 7C1D   :   6C;
 7C1E   :   68;
 7C1F   :   64;
 7C20   :   62;
 7C21   :   60;
 7C22   :   B2;
 7C23   :   5E;
 7C24   :   5C;
 7C25   :   B9;
 7C26   :    2;
 7C27   :    2;
 7C28   :    0;
 7C29   :   FF;
 7C2A   :   FF;
 7C2B   :   FF;
 7C2C   :   FF;
 7C2D   :   FF;
 7C2E   :   FF;
 7C2F   :   FF;
 7C30   :   FF;
 7C31   :   FF;
 7C32   :   FF;
 7C33   :   FF;
 7C34   :   FF;
 7C35   :   FF;
 7C36   :   FF;
 7C37   :   FF;
 7C38   :   FF;
 7C39   :   FF;
 7C3A   :   FF;
 7C3B   :   FF;
 7C3C   :   FF;
 7C3D   :   FF;
 7C3E   :   FF;
 7C3F   :   FF;
 7C40   :   FF;
 7C41   :   FF;
 7C42   :   FF;
 7C43   :   FF;
 7C44   :   FF;
 7C45   :   FF;
 7C46   :   FF;
 7C47   :   FF;
 7C48   :   FF;
 7C49   :   FF;
 7C4A   :   FF;
 7C4B   :   FF;
 7C4C   :   FF;
 7C4D   :   FF;
 7C4E   :   FF;
 7C4F   :   FF;
 7C50   :   FF;
 7C51   :   FF;
 7C52   :   FF;
 7C53   :   FF;
 7C54   :   FF;
 7C55   :   FF;
 7C56   :   FF;
 7C57   :   FF;
 7C58   :   FF;
 7C59   :   FF;
 7C5A   :   FF;
 7C5B   :   FF;
 7C5C   :   FF;
 7C5D   :   FF;
 7C5E   :   FF;
 7C5F   :   FF;
 7C60   :   FF;
 7C61   :   FF;
 7C62   :   FF;
 7C63   :   FF;
 7C64   :   FF;
 7C65   :   FF;
 7C66   :   FF;
 7C67   :   FF;
 7C68   :   FF;
 7C69   :   FF;
 7C6A   :   FF;
 7C6B   :   FF;
 7C6C   :   FF;
 7C6D   :   FF;
 7C6E   :   FF;
 7C6F   :   FF;
 7C70   :   FF;
 7C71   :   FF;
 7C72   :   FF;
 7C73   :   FF;
 7C74   :   FF;
 7C75   :   FF;
 7C76   :   FF;
 7C77   :   FF;
 7C78   :   FF;
 7C79   :   FF;
 7C7A   :   FF;
 7C7B   :   FF;
 7C7C   :   FF;
 7C7D   :   FF;
 7C7E   :   FF;
 7C7F   :   FF;
 7C80   :   D8;
 7C81   :   78;
 7C82   :   A2;
 7C83   :    0;
 7C84   :   8E;
 7C85   :    0;
 7C86   :   20;
 7C87   :   8E;
 7C88   :    1;
 7C89   :   20;
 7C8A   :   AD;
 7C8B   :    2;
 7C8C   :   20;
 7C8D   :   10;
 7C8E   :   FB;
 7C8F   :   AD;
 7C90   :    2;
 7C91   :   20;
 7C92   :   10;
 7C93   :   FB;
 7C94   :   A2;
 7C95   :   FF;
 7C96   :   9A;
 7C97   :   EE;
 7C98   :   80;
 7C99   :   FC;
 7C9A   :   A9;
 7C9B   :   10;
 7C9C   :   20;
 7C9D   :   D5;
 7C9E   :   B8;
 7C9F   :   A9;
 7CA0   :    2;
 7CA1   :   20;
 7CA2   :   E9;
 7CA3   :   B8;
 7CA4   :   A9;
 7CA5   :    3;
 7CA6   :   20;
 7CA7   :   FD;
 7CA8   :   B8;
 7CA9   :   A9;
 7CAA   :    0;
 7CAB   :   20;
 7CAC   :   11;
 7CAD   :   B9;
 7CAE   :   4C;
 7CAF   :    0;
 7CB0   :   80;
 7CB1   :   FF;
 7CB2   :   FF;
 7CB3   :   FF;
 7CB4   :   FF;
 7CB5   :   FF;
 7CB6   :   FF;
 7CB7   :   FF;
 7CB8   :   FF;
 7CB9   :   FF;
 7CBA   :   FF;
 7CBB   :   FF;
 7CBC   :   FF;
 7CBD   :   FF;
 7CBE   :   FF;
 7CBF   :   FF;
 7CC0   :   FF;
 7CC1   :   FF;
 7CC2   :   FF;
 7CC3   :   FF;
 7CC4   :   FF;
 7CC5   :   FF;
 7CC6   :   FF;
 7CC7   :   FF;
 7CC8   :   FF;
 7CC9   :   FF;
 7CCA   :   FF;
 7CCB   :   FF;
 7CCC   :   FF;
 7CCD   :   FF;
 7CCE   :   FF;
 7CCF   :   FF;
 7CD0   :   FF;
 7CD1   :   FF;
 7CD2   :   FF;
 7CD3   :   FF;
 7CD4   :   FF;
 7CD5   :   FF;
 7CD6   :   FF;
 7CD7   :   FF;
 7CD8   :   FF;
 7CD9   :   FF;
 7CDA   :   FF;
 7CDB   :   FF;
 7CDC   :   FF;
 7CDD   :   FF;
 7CDE   :   FF;
 7CDF   :   FF;
 7CE0   :   FF;
 7CE1   :   FF;
 7CE2   :   FF;
 7CE3   :   FF;
 7CE4   :   FF;
 7CE5   :   FF;
 7CE6   :   FF;
 7CE7   :   FF;
 7CE8   :   FF;
 7CE9   :   FF;
 7CEA   :   FF;
 7CEB   :   FF;
 7CEC   :   FF;
 7CED   :   FF;
 7CEE   :   FF;
 7CEF   :   FF;
 7CF0   :   FF;
 7CF1   :   FF;
 7CF2   :   FF;
 7CF3   :   FF;
 7CF4   :   FF;
 7CF5   :   FF;
 7CF6   :   FF;
 7CF7   :   FF;
 7CF8   :   FF;
 7CF9   :   FF;
 7CFA   :   FF;
 7CFB   :   FF;
 7CFC   :   FF;
 7CFD   :   FF;
 7CFE   :   FF;
 7CFF   :   FF;
 7D00   :   74;
 7D01   :   FF;
 7D02   :   FF;
 7D03   :    3;
 7D04   :   24;
 7D05   :    1;
 7D06   :   82;
 7D07   :   54;
 7D08   :    1;
 7D09   :   10;
 7D0A   :   FF;
 7D0B   :   FF;
 7D0C   :   FF;
 7D0D   :   FF;
 7D0E   :    F;
 7D0F   :    0;
 7D10   :    0;
 7D11   :   B0;
 7D12   :   FF;
 7D13   :   7F;
 7D14   :    9;
 7D15   :    0;
 7D16   :    0;
 7D17   :   B8;
 7D18   :   FF;
 7D19   :   FF;
 7D1A   :    F;
 7D1B   :    0;
 7D1C   :   E0;
 7D1D   :   FF;
 7D1E   :   FF;
 7D1F   :    2;
 7D20   :    1;
 7D21   :    0;
 7D22   :   C0;
 7D23   :   FF;
 7D24   :   FF;
 7D25   :   FF;
 7D26   :    1;
 7D27   :    0;
 7D28   :    0;
 7D29   :   FE;
 7D2A   :   FF;
 7D2B   :   FF;
 7D2C   :    1;
 7D2D   :    0;
 7D2E   :   C0;
 7D2F   :   FE;
 7D30   :   5F;
 7D31   :    2;
 7D32   :    0;
 7D33   :   FC;
 7D34   :   FF;
 7D35   :   FF;
 7D36   :   FF;
 7D37   :    0;
 7D38   :    0;
 7D39   :    0;
 7D3A   :   E0;
 7D3B   :   FF;
 7D3C   :   FF;
 7D3D   :    7;
 7D3E   :    0;
 7D3F   :    0;
 7D40   :   FF;
 7D41   :   FF;
 7D42   :   1F;
 7D43   :    0;
 7D44   :    0;
 7D45   :   F4;
 7D46   :   FF;
 7D47   :   FF;
 7D48   :    3;
 7D49   :    0;
 7D4A   :    0;
 7D4B   :   FC;
 7D4C   :   FF;
 7D4D   :   FF;
 7D4E   :   1F;
 7D4F   :    0;
 7D50   :    0;
 7D51   :   E0;
 7D52   :   FF;
 7D53   :   FF;
 7D54   :    3;
 7D55   :    0;
 7D56   :   80;
 7D57   :   FF;
 7D58   :   FF;
 7D59   :   3F;
 7D5A   :    0;
 7D5B   :    0;
 7D5C   :   F0;
 7D5D   :   FF;
 7D5E   :   FF;
 7D5F   :    F;
 7D60   :    0;
 7D61   :    0;
 7D62   :   80;
 7D63   :   FF;
 7D64   :   FF;
 7D65   :   7F;
 7D66   :    0;
 7D67   :    0;
 7D68   :   FE;
 7D69   :   FF;
 7D6A   :    2;
 7D6B   :    0;
 7D6C   :    0;
 7D6D   :   F8;
 7D6E   :   FF;
 7D6F   :   FF;
 7D70   :   3F;
 7D71   :    1;
 7D72   :    0;
 7D73   :   C0;
 7D74   :   FF;
 7D75   :   FF;
 7D76   :   3F;
 7D77   :    0;
 7D78   :    0;
 7D79   :   C0;
 7D7A   :   FF;
 7D7B   :   BF;
 7D7C   :    4;
 7D7D   :   25;
 7D7E   :   A9;
 7D7F   :   FF;
 7D80   :   FF;
 7D81   :    2;
 7D82   :    0;
 7D83   :    0;
 7D84   :   E0;
 7D85   :   FF;
 7D86   :   FF;
 7D87   :   5F;
 7D88   :    0;
 7D89   :    0;
 7D8A   :   E0;
 7D8B   :   FF;
 7D8C   :   FF;
 7D8D   :   97;
 7D8E   :    4;
 7D8F   :    0;
 7D90   :   AC;
 7D91   :   55;
 7D92   :   B7;
 7D93   :   93;
 7D94   :   44;
 7D95   :   F7;
 7D96   :   EF;
 7D97   :   5F;
 7D98   :   41;
 7D99   :    0;
 7D9A   :    0;
 7D9B   :   D5;
 7D9C   :   7D;
 7D9D   :   EF;
 7D9E   :   5E;
 7D9F   :   11;
 7DA0   :    0;
 7DA1   :   F5;
 7DA2   :   7D;
 7DA3   :   DF;
 7DA4   :   57;
 7DA5   :    2;
 7DA6   :   24;
 7DA7   :   5A;
 7DA8   :   82;
 7DA9   :   6A;
 7DAA   :   35;
 7DAB   :   B5;
 7DAC   :   AA;
 7DAD   :   F6;
 7DAE   :   FD;
 7DAF   :   2F;
 7DB0   :   25;
 7DB1   :    2;
 7DB2   :    0;
 7DB3   :   B5;
 7DB4   :   75;
 7DB5   :   7F;
 7DB6   :   4B;
 7DB7   :   42;
 7DB8   :    4;
 7DB9   :   B4;
 7DBA   :   FD;
 7DBB   :   FF;
 7DBC   :   7E;
 7DBD   :   11;
 7DBE   :    0;
 7DBF   :   54;
 7DC0   :   AA;
 7DC1   :   FA;
 7DC2   :   56;
 7DC3   :   82;
 7DC4   :   52;
 7DC5   :   DB;
 7DC6   :   7D;
 7DC7   :   AF;
 7DC8   :   2A;
 7DC9   :    2;
 7DCA   :   80;
 7DCB   :   F6;
 7DCC   :   FF;
 7DCD   :   3F;
 7DCE   :    9;
 7DCF   :    0;
 7DD0   :    0;
 7DD1   :   FB;
 7DD2   :   FD;
 7DD3   :   BF;
 7DD4   :   46;
 7DD5   :    0;
 7DD6   :   A5;
 7DD7   :   F6;
 7DD8   :   FF;
 7DD9   :   2A;
 7DDA   :    0;
 7DDB   :    0;
 7DDC   :   E8;
 7DDD   :   FE;
 7DDE   :   FF;
 7DDF   :   2F;
 7DE0   :    1;
 7DE1   :    0;
 7DE2   :   6A;
 7DE3   :   FF;
 7DE4   :   FF;
 7DE5   :   25;
 7DE6   :    0;
 7DE7   :    0;
 7DE8   :   DC;
 7DE9   :   FF;
 7DEA   :   BF;
 7DEB   :   12;
 7DEC   :    0;
 7DED   :   B0;
 7DEE   :   FB;
 7DEF   :   FF;
 7DF0   :   5F;
 7DF1   :    4;
 7DF2   :    0;
 7DF3   :    0;
 7DF4   :   FB;
 7DF5   :   FF;
 7DF6   :   BF;
 7DF7   :    0;
 7DF8   :    0;
 7DF9   :   E8;
 7DFA   :   FF;
 7DFB   :   FF;
 7DFC   :   13;
 7DFD   :    0;
 7DFE   :    0;
 7DFF   :   75;
 7E00   :   FF;
 7E01   :   FF;
 7E02   :    9;
 7E03   :    0;
 7E04   :   40;
 7E05   :   EE;
 7E06   :   FF;
 7E07   :   7F;
 7E08   :   11;
 7E09   :    0;
 7E0A   :   C0;
 7E0B   :   FD;
 7E0C   :   FF;
 7E0D   :   4B;
 7E0E   :    0;
 7E0F   :    0;
 7E10   :   B5;
 7E11   :   FD;
 7E12   :   FF;
 7E13   :   2B;
 7E14   :    0;
 7E15   :   80;
 7E16   :   F6;
 7E17   :   FE;
 7E18   :   FF;
 7E19   :    8;
 7E1A   :    2;
 7E1B   :    0;
 7E1C   :   F6;
 7E1D   :   FF;
 7E1E   :   5F;
 7E1F   :   49;
 7E20   :    0;
 7E21   :   50;
 7E22   :   F7;
 7E23   :   7F;
 7E24   :   AF;
 7E25   :    8;
 7E26   :    0;
 7E27   :   A4;
 7E28   :   F6;
 7E29   :   FF;
 7E2A   :   2D;
 7E2B   :    4;
 7E2C   :   11;
 7E2D   :   DA;
 7E2E   :   F7;
 7E2F   :   76;
 7E30   :   2B;
 7E31   :    4;
 7E32   :   90;
 7E33   :   6B;
 7E34   :   DF;
 7E35   :   AD;
 7E36   :   12;
 7E37   :   44;
 7E38   :   50;
 7E39   :   FD;
 7E3A   :   FE;
 7E3B   :   6A;
 7E3C   :   25;
 7E3D   :   41;
 7E3E   :   52;
 7E3F   :   D5;
 7E40   :   F6;
 7E41   :   AA;
 7E42   :   24;
 7E43   :   51;
 7E44   :   69;
 7E45   :   DB;
 7E46   :   DE;
 7E47   :   4A;
 7E48   :   92;
 7E49   :   28;
 7E4A   :   55;
 7E4B   :   DB;
 7E4C   :   B6;
 7E4D   :   AA;
 7E4E   :   52;
 7E4F   :   A1;
 7E50   :   52;
 7E51   :   5B;
 7E52   :   37;
 7E53   :   55;
 7E54   :   95;
 7E55   :   54;
 7E56   :   A9;
 7E57   :   AD;
 7E58   :   5A;
 7E59   :   55;
 7E5A   :   A5;
 7E5B   :   54;
 7E5C   :   55;
 7E5D   :   55;
 7E5E   :   AB;
 7E5F   :   55;
 7E60   :   25;
 7E61   :   55;
 7E62   :   A9;
 7E63   :   D3;
 7E64   :   D6;
 7E65   :   4A;
 7E66   :   95;
 7E67   :   A4;
 7E68   :   AA;
 7E69   :   5A;
 7E6A   :   AB;
 7E6B   :   4D;
 7E6C   :   95;
 7E6D   :   54;
 7E6E   :   B2;
 7E6F   :   DA;
 7E70   :   B6;
 7E71   :   A9;
 7E72   :   92;
 7E73   :   54;
 7E74   :   54;
 7E75   :   EB;
 7E76   :   DA;
 7E77   :   AA;
 7E78   :   92;
 7E79   :   A4;
 7E7A   :   4A;
 7E7B   :   6B;
 7E7C   :   B7;
 7E7D   :   69;
 7E7E   :   92;
 7E7F   :   A4;
 7E80   :   52;
 7E81   :   6F;
 7E82   :   B5;
 7E83   :   A9;
 7E84   :   24;
 7E85   :   A4;
 7E86   :   6A;
 7E87   :   DB;
 7E88   :   B6;
 7E89   :   95;
 7E8A   :   22;
 7E8B   :   51;
 7E8C   :   6A;
 7E8D   :   FB;
 7E8E   :   56;
 7E8F   :   15;
 7E90   :   12;
 7E91   :   29;
 7E92   :   B5;
 7E93   :   FB;
 7E94   :   D6;
 7E95   :   92;
 7E96   :   90;
 7E97   :   54;
 7E98   :   6D;
 7E99   :   7B;
 7E9A   :   55;
 7E9B   :   91;
 7E9C   :   90;
 7E9D   :   A4;
 7E9E   :   77;
 7E9F   :   BF;
 7EA0   :   A6;
 7EA1   :    2;
 7EA2   :   12;
 7EA3   :   A9;
 7EA4   :   F7;
 7EA5   :   DB;
 7EA6   :   4A;
 7EA7   :   11;
 7EA8   :   92;
 7EA9   :   B4;
 7EAA   :   ED;
 7EAB   :   5D;
 7EAC   :   55;
 7EAD   :   82;
 7EAE   :   A4;
 7EAF   :   B6;
 7EB0   :   B7;
 7EB1   :   2B;
 7EB2   :   49;
 7EB3   :   90;
 7EB4   :   A4;
 7EB5   :   F6;
 7EB6   :   77;
 7EB7   :   5B;
 7EB8   :   49;
 7EB9   :   40;
 7EBA   :   52;
 7EBB   :   BB;
 7EBC   :   77;
 7EBD   :   2B;
 7EBE   :    9;
 7EBF   :   A1;
 7EC0   :   6C;
 7EC1   :   BB;
 7EC2   :   6D;
 7EC3   :   95;
 7EC4   :   48;
 7EC5   :   A8;
 7EC6   :   DA;
 7EC7   :   DE;
 7EC8   :   B5;
 7EC9   :   92;
 7ECA   :    8;
 7ECB   :   91;
 7ECC   :   6D;
 7ECD   :   F7;
 7ECE   :   B6;
 7ECF   :   24;
 7ED0   :   89;
 7ED1   :   52;
 7ED2   :   6D;
 7ED3   :   DB;
 7ED4   :   AA;
 7ED5   :   24;
 7ED6   :   49;
 7ED7   :   55;
 7ED8   :   AF;
 7ED9   :   5E;
 7EDA   :   95;
 7EDB   :   14;
 7EDC   :   A1;
 7EDD   :   B2;
 7EDE   :   7B;
 7EDF   :   B7;
 7EE0   :   92;
 7EE1   :   92;
 7EE2   :   48;
 7EE3   :   69;
 7EE4   :   DB;
 7EE5   :   56;
 7EE6   :   95;
 7EE7   :   52;
 7EE8   :   A9;
 7EE9   :   6A;
 7EEA   :   DB;
 7EEB   :   AA;
 7EEC   :   92;
 7EED   :   24;
 7EEE   :   D5;
 7EEF   :   6A;
 7EF0   :   AF;
 7EF1   :   44;
 7EF2   :   44;
 7EF3   :   55;
 7EF4   :   44;
 7EF5   :   44;
 7EF6   :   44;
 7EF7   :   44;
 7EF8   :   33;
 7EF9   :   22;
 7EFA   :   55;
 7EFB   :   AA;
 7EFC   :    0;
 7EFD   :   55;
 7EFE   :    0;
 7EFF   :    0;
 7F00   :   EE;
 7F01   :   82;
 7F02   :    6;
 7F03   :   20;
 7F04   :   6F;
 7F05   :   D4;
 7F06   :   8D;
 7F07   :   83;
 7F08   :    6;
 7F09   :   60;
 7F0A   :   AD;
 7F0B   :   82;
 7F0C   :    6;
 7F0D   :   F0;
 7F0E   :   F1;
 7F0F   :   AD;
 7F10   :   83;
 7F11   :    6;
 7F12   :   C9;
 7F13   :   12;
 7F14   :   F0;
 7F15   :   1A;
 7F16   :   29;
 7F17   :    3;
 7F18   :   C9;
 7F19   :    3;
 7F1A   :   D0;
 7F1B   :   11;
 7F1C   :   EE;
 7F1D   :   8B;
 7F1E   :    6;
 7F1F   :   A0;
 7F20   :   34;
 7F21   :   AD;
 7F22   :   8B;
 7F23   :    6;
 7F24   :   29;
 7F25   :    1;
 7F26   :   D0;
 7F27   :    2;
 7F28   :   A0;
 7F29   :   30;
 7F2A   :   20;
 7F2B   :   8E;
 7F2C   :   D2;
 7F2D   :   EE;
 7F2E   :   83;
 7F2F   :    6;
 7F30   :   60;
 7F31   :   A9;
 7F32   :   C0;
 7F33   :   8D;
 7F34   :   17;
 7F35   :   40;
 7F36   :   20;
 7F37   :   B5;
 7F38   :   D2;
 7F39   :   AD;
 7F3A   :   8D;
 7F3B   :    6;
 7F3C   :   C9;
 7F3D   :    5;
 7F3E   :   F0;
 7F3F   :   CA;
 7F40   :   A9;
 7F41   :    0;
 7F42   :   8D;
 7F43   :   82;
 7F44   :    6;
 7F45   :   8D;
 7F46   :   8B;
 7F47   :    6;
 7F48   :   AD;
 7F49   :   F4;
 7F4A   :    6;
 7F4B   :   C9;
 7F4C   :    3;
 7F4D   :   F0;
 7F4E   :    3;
 7F4F   :   4C;
 7F50   :   64;
 7F51   :   FF;
 7F52   :   20;
 7F53   :   3F;
 7F54   :   D4;
 7F55   :   A9;
 7F56   :    3;
 7F57   :   8D;
 7F58   :   F4;
 7F59   :    6;
 7F5A   :   A9;
 7F5B   :    5;
 7F5C   :   8D;
 7F5D   :   F0;
 7F5E   :    6;
 7F5F   :   A9;
 7F60   :    4;
 7F61   :   8D;
 7F62   :   F3;
 7F63   :    6;
 7F64   :   AD;
 7F65   :   F5;
 7F66   :    6;
 7F67   :   C9;
 7F68   :    5;
 7F69   :   F0;
 7F6A   :   17;
 7F6B   :   C9;
 7F6C   :    C;
 7F6D   :   F0;
 7F6E   :    3;
 7F6F   :   4C;
 7F70   :   89;
 7F71   :   FF;
 7F72   :   20;
 7F73   :   3F;
 7F74   :   D4;
 7F75   :   A9;
 7F76   :    C;
 7F77   :   8D;
 7F78   :   F5;
 7F79   :    6;
 7F7A   :   A9;
 7F7B   :    2;
 7F7C   :   8D;
 7F7D   :   F0;
 7F7E   :    6;
 7F7F   :   4C;
 7F80   :   89;
 7F81   :   FF;
 7F82   :   A9;
 7F83   :    2;
 7F84   :   D0;
 7F85   :    0;
 7F86   :   8D;
 7F87   :   F0;
 7F88   :    6;
 7F89   :   20;
 7F8A   :   D0;
 7F8B   :   D3;
 7F8C   :   20;
 7F8D   :   F5;
 7F8E   :   D3;
 7F8F   :   20;
 7F90   :   E0;
 7F91   :   D3;
 7F92   :   20;
 7F93   :   D8;
 7F94   :   D3;
 7F95   :   20;
 7F96   :   E8;
 7F97   :   D3;
 7F98   :   20;
 7F99   :   55;
 7F9A   :   DA;
 7F9B   :   A9;
 7F9C   :    0;
 7F9D   :   A2;
 7F9E   :    6;
 7F9F   :   9D;
 7FA0   :   EF;
 7FA1   :    6;
 7FA2   :   CA;
 7FA3   :   D0;
 7FA4   :   FA;
 7FA5   :   60;
 7FA6   :   FF;
 7FA7   :   FF;
 7FA8   :   FF;
 7FA9   :   FF;
 7FAA   :   FF;
 7FAB   :   FF;
 7FAC   :   FF;
 7FAD   :   FF;
 7FAE   :   FF;
 7FAF   :   FF;
 7FB0   :   FF;
 7FB1   :   FF;
 7FB2   :   FF;
 7FB3   :   FF;
 7FB4   :   FF;
 7FB5   :   FF;
 7FB6   :   FF;
 7FB7   :   FF;
 7FB8   :   FF;
 7FB9   :   FF;
 7FBA   :   FF;
 7FBB   :   FF;
 7FBC   :   FF;
 7FBD   :   FF;
 7FBE   :   FF;
 7FBF   :   FF;
 7FC0   :   FF;
 7FC1   :   FF;
 7FC2   :   FF;
 7FC3   :   FF;
 7FC4   :   FF;
 7FC5   :   FF;
 7FC6   :   FF;
 7FC7   :   FF;
 7FC8   :   FF;
 7FC9   :   FF;
 7FCA   :   FF;
 7FCB   :   FF;
 7FCC   :   FF;
 7FCD   :   FF;
 7FCE   :   FF;
 7FCF   :   FF;
 7FD0   :   4C;
 7FD1   :   31;
 7FD2   :   FF;
 7FD3   :   4C;
 7FD4   :   3F;
 7FD5   :   D4;
 7FD6   :   4C;
 7FD7   :   81;
 7FD8   :   D2;
 7FD9   :   FF;
 7FDA   :   FF;
 7FDB   :   FF;
 7FDC   :   FF;
 7FDD   :   FF;
 7FDE   :   FF;
 7FDF   :   FF;
 7FE0   :   20;
 7FE1   :   20;
 7FE2   :   20;
 7FE3   :   20;
 7FE4   :   20;
 7FE5   :   20;
 7FE6   :   20;
 7FE7   :   20;
 7FE8   :   44;
 7FE9   :   52;
 7FEA   :   2E;
 7FEB   :   4D;
 7FEC   :   41;
 7FED   :   52;
 7FEE   :   49;
 7FEF   :   4F;
 7FF0   :   64;
 7FF1   :    5;
 7FF2   :   C2;
 7FF3   :   A1;
 7FF4   :   22;
 7FF5   :    4;
 7FF6   :    1;
 7FF7   :    7;
 7FF8   :    1;
 7FF9   :   6E;
 7FFA   :    5;
 7FFB   :   80;
 7FFC   :   80;
 7FFD   :   FC;
 7FFE   :   35;
 7FFF   :   80;
END; 