-- Copyright (C) 1991-2013 Altera Corporation
-- Your use of Altera Corporation's design tools, logic functions 
-- and other software and tools, and its AMPP partner logic 
-- functions, and any output files from any of the foregoing 
-- (including device programming or simulation files), and any 
-- associated documentation or information are expressly subject 
-- to the terms and conditions of the Altera Program License 
-- Subscription Agreement, Altera MegaCore Function License 
-- Agreement, or other applicable license agreement, including, 
-- without limitation, that your use is for the sole purpose of 
-- programming logic devices manufactured by Altera and sold by 
-- Altera or its authorized distributors.  Please refer to the 
-- applicable agreement for further details.

-- Quartus II generated Memory Initialization File (.mif)

WIDTH=8;
DEPTH=65536;

ADDRESS_RADIX=HEX;
DATA_RADIX=HEX;

CONTENT BEGIN    

    0   :   FF;
    1   :   FF;
    2   :   FF;
    3   :   FF;
    4   :   FF;
    5   :   FF;
    6   :   FF;
    7   :   FF;
    8   :   FF;
    9   :   FF;
    A   :   FF;
    B   :   FF;
    C   :   FF;
    D   :   FF;
    E   :   FF;
    F   :   FF;
   10   :   FF;
   11   :   FF;
   12   :   FF;
   13   :   FF;
   14   :   FF;
   15   :   FF;
   16   :   FF;
   17   :   FF;
   18   :   FF;
   19   :   FF;
   1A   :   FF;
   1B   :   FF;
   1C   :   FF;
   1D   :   FF;
   1E   :   FF;
   1F   :   FF;
   20   :   FF;
   21   :   FF;
   22   :   FF;
   23   :   FF;
   24   :   FF;
   25   :   FF;
   26   :   FF;
   27   :   FF;
   28   :   FF;
   29   :   FF;
   2A   :   FF;
   2B   :   FF;
   2C   :   FF;
   2D   :   FF;
   2E   :   FF;
   2F   :   FF;
   30   :   FF;
   31   :   FF;
   32   :   FF;
   33   :   FF;
   34   :   FF;
   35   :   FF;
   36   :   FF;
   37   :   FF;
   38   :   FF;
   39   :   FF;
   3A   :   FF;
   3B   :   FF;
   3C   :   FF;
   3D   :   FF;
   3E   :   FF;
   3F   :   FF;
   40   :   FF;
   41   :   FF;
   42   :   FF;
   43   :   FF;
   44   :   FF;
   45   :   FF;
   46   :   FF;
   47   :   FF;
   48   :   FF;
   49   :   FF;
   4A   :   FF;
   4B   :   FF;
   4C   :   FF;
   4D   :   FF;
   4E   :   FF;
   4F   :   FF;
   50   :   FF;
   51   :   FF;
   52   :   FF;
   53   :   FF;
   54   :   FF;
   55   :   FF;
   56   :   FF;
   57   :   FF;
   58   :   FF;
   59   :   FF;
   5A   :   FF;
   5B   :   FF;
   5C   :   FF;
   5D   :   FF;
   5E   :   FF;
   5F   :   FF;
   60   :   FF;
   61   :   FF;
   62   :   FF;
   63   :   FF;
   64   :   FF;
   65   :   FF;
   66   :   FF;
   67   :   FF;
   68   :   FF;
   69   :   FF;
   6A   :   FF;
   6B   :   FF;
   6C   :   FF;
   6D   :   FF;
   6E   :   FF;
   6F   :   FF;
   70   :   FF;
   71   :   FF;
   72   :   FF;
   73   :   FF;
   74   :   FF;
   75   :   FF;
   76   :   FF;
   77   :   FF;
   78   :   FF;
   79   :   FF;
   7A   :   FF;
   7B   :   FF;
   7C   :   FF;
   7D   :   FF;
   7E   :   FF;
   7F   :   FF;
   80   :   FF;
   81   :   FF;
   82   :   FF;
   83   :   FF;
   84   :   FF;
   85   :   FF;
   86   :   FF;
   87   :   FF;
   88   :   FF;
   89   :   FF;
   8A   :   FF;
   8B   :   FF;
   8C   :   FF;
   8D   :   FF;
   8E   :   FF;
   8F   :   FF;
   90   :   FF;
   91   :   FF;
   92   :   FF;
   93   :   FF;
   94   :   FF;
   95   :   FF;
   96   :   FF;
   97   :   FF;
   98   :   FF;
   99   :   FF;
   9A   :   FF;
   9B   :   FF;
   9C   :   FF;
   9D   :   FF;
   9E   :   FF;
   9F   :   FF;
   A0   :   FF;
   A1   :   FF;
   A2   :   FF;
   A3   :   FF;
   A4   :   FF;
   A5   :   FF;
   A6   :   FF;
   A7   :   FF;
   A8   :   FF;
   A9   :   FF;
   AA   :   FF;
   AB   :   FF;
   AC   :   FF;
   AD   :   FF;
   AE   :   FF;
   AF   :   FF;
   B0   :   FF;
   B1   :   FF;
   B2   :   FF;
   B3   :   FF;
   B4   :   FF;
   B5   :   FF;
   B6   :   FF;
   B7   :   FF;
   B8   :   FF;
   B9   :   FF;
   BA   :   FF;
   BB   :   FF;
   BC   :   FF;
   BD   :   FF;
   BE   :   FF;
   BF   :   FF;
   C0   :   FF;
   C1   :   FF;
   C2   :   FF;
   C3   :   FF;
   C4   :   FF;
   C5   :   FF;
   C6   :   FF;
   C7   :   FF;
   C8   :   FF;
   C9   :   FF;
   CA   :   FF;
   CB   :   FF;
   CC   :   FF;
   CD   :   FF;
   CE   :   FF;
   CF   :   FF;
   D0   :   FF;
   D1   :   FF;
   D2   :   FF;
   D3   :   FF;
   D4   :   FF;
   D5   :   FF;
   D6   :   FF;
   D7   :   FF;
   D8   :   FF;
   D9   :   FF;
   DA   :   FF;
   DB   :   FF;
   DC   :   FF;
   DD   :   FF;
   DE   :   FF;
   DF   :   FF;
   E0   :   FF;
   E1   :   FF;
   E2   :   FF;
   E3   :   FF;
   E4   :   FF;
   E5   :   FF;
   E6   :   FF;
   E7   :   FF;
   E8   :   FF;
   E9   :   FF;
   EA   :   FF;
   EB   :   FF;
   EC   :   FF;
   ED   :   FF;
   EE   :   FF;
   EF   :   FF;
   F0   :   FF;
   F1   :   FF;
   F2   :   FF;
   F3   :   FF;
   F4   :   FF;
   F5   :   FF;
   F6   :   FF;
   F7   :   FF;
   F8   :   FF;
   F9   :   FF;
   FA   :   FF;
   FB   :   FF;
   FC   :   FF;
   FD   :   FF;
   FE   :   FF;
   FF   :   FF;
  100   :   FF;
  101   :   FF;
  102   :   FF;
  103   :   FF;
  104   :   FF;
  105   :   FF;
  106   :   FF;
  107   :   FF;
  108   :   FF;
  109   :   FF;
  10A   :   FF;
  10B   :   FF;
  10C   :   FF;
  10D   :   FF;
  10E   :   FF;
  10F   :   FF;
  110   :   FF;
  111   :   FF;
  112   :   FF;
  113   :   FF;
  114   :   FF;
  115   :   FF;
  116   :   FF;
  117   :   FF;
  118   :   FF;
  119   :   FF;
  11A   :   FF;
  11B   :   FF;
  11C   :   FF;
  11D   :   FF;
  11E   :   FF;
  11F   :   FF;
  120   :   FF;
  121   :   FF;
  122   :   FF;
  123   :   FF;
  124   :   FF;
  125   :   FF;
  126   :   FF;
  127   :   FF;
  128   :   FF;
  129   :   FF;
  12A   :   FF;
  12B   :   FF;
  12C   :   FF;
  12D   :   FF;
  12E   :   FF;
  12F   :   FF;
  130   :   FF;
  131   :   FF;
  132   :   FF;
  133   :   FF;
  134   :   FF;
  135   :   FF;
  136   :   FF;
  137   :   FF;
  138   :   FF;
  139   :   FF;
  13A   :   FF;
  13B   :   FF;
  13C   :   FF;
  13D   :   FF;
  13E   :   FF;
  13F   :   FF;
  140   :   FF;
  141   :   FF;
  142   :   FF;
  143   :   FF;
  144   :   FF;
  145   :   FF;
  146   :   FF;
  147   :   FF;
  148   :   FF;
  149   :   FF;
  14A   :   FF;
  14B   :   FF;
  14C   :   FF;
  14D   :   FF;
  14E   :   FF;
  14F   :   FF;
  150   :   FF;
  151   :   FF;
  152   :   FF;
  153   :   FF;
  154   :   FF;
  155   :   FF;
  156   :   FF;
  157   :   FF;
  158   :   FF;
  159   :   FF;
  15A   :   FF;
  15B   :   FF;
  15C   :   FF;
  15D   :   FF;
  15E   :   FF;
  15F   :   FF;
  160   :   FF;
  161   :   FF;
  162   :   FF;
  163   :   FF;
  164   :   FF;
  165   :   FF;
  166   :   FF;
  167   :   FF;
  168   :   FF;
  169   :   FF;
  16A   :   FF;
  16B   :   FF;
  16C   :   FF;
  16D   :   FF;
  16E   :   FF;
  16F   :   FF;
  170   :   FF;
  171   :   FF;
  172   :   FF;
  173   :   FF;
  174   :   FF;
  175   :   FF;
  176   :   FF;
  177   :   FF;
  178   :   FF;
  179   :   FF;
  17A   :   FF;
  17B   :   FF;
  17C   :   FF;
  17D   :   FF;
  17E   :   FF;
  17F   :   FF;
  180   :   FF;
  181   :   FF;
  182   :   FF;
  183   :   FF;
  184   :   FF;
  185   :   FF;
  186   :   FF;
  187   :   FF;
  188   :   FF;
  189   :   FF;
  18A   :   FF;
  18B   :   FF;
  18C   :   FF;
  18D   :   FF;
  18E   :   FF;
  18F   :   FF;
  190   :   FF;
  191   :   FF;
  192   :   FF;
  193   :   FF;
  194   :   FF;
  195   :   FF;
  196   :   FF;
  197   :   FF;
  198   :   FF;
  199   :   FF;
  19A   :   FF;
  19B   :   FF;
  19C   :   FF;
  19D   :   FF;
  19E   :   FF;
  19F   :   FF;
  1A0   :   FF;
  1A1   :   FF;
  1A2   :   FF;
  1A3   :   FF;
  1A4   :   FF;
  1A5   :   FF;
  1A6   :   FF;
  1A7   :   FF;
  1A8   :   FF;
  1A9   :   FF;
  1AA   :   FF;
  1AB   :   FF;
  1AC   :   FF;
  1AD   :   FF;
  1AE   :   FF;
  1AF   :   FF;
  1B0   :   FF;
  1B1   :   FF;
  1B2   :   FF;
  1B3   :   FF;
  1B4   :   FF;
  1B5   :   FF;
  1B6   :   FF;
  1B7   :   FF;
  1B8   :   FF;
  1B9   :   FF;
  1BA   :   FF;
  1BB   :   FF;
  1BC   :   FF;
  1BD   :   FF;
  1BE   :   FF;
  1BF   :   FF;
  1C0   :   FF;
  1C1   :   FF;
  1C2   :   FF;
  1C3   :   FF;
  1C4   :   FF;
  1C5   :   FF;
  1C6   :   FF;
  1C7   :   FF;
  1C8   :   FF;
  1C9   :   FF;
  1CA   :   FF;
  1CB   :   FF;
  1CC   :   FF;
  1CD   :   FF;
  1CE   :   FF;
  1CF   :   FF;
  1D0   :   FF;
  1D1   :   FF;
  1D2   :   FF;
  1D3   :   FF;
  1D4   :   FF;
  1D5   :   FF;
  1D6   :   FF;
  1D7   :   FF;
  1D8   :   FF;
  1D9   :   FF;
  1DA   :   FF;
  1DB   :   FF;
  1DC   :   FF;
  1DD   :   FF;
  1DE   :   FF;
  1DF   :   FF;
  1E0   :   FF;
  1E1   :   FF;
  1E2   :   FF;
  1E3   :   FF;
  1E4   :   FF;
  1E5   :   FF;
  1E6   :   FF;
  1E7   :   FF;
  1E8   :   FF;
  1E9   :   FF;
  1EA   :   FF;
  1EB   :   FF;
  1EC   :   FF;
  1ED   :   FF;
  1EE   :   FF;
  1EF   :   FF;
  1F0   :   FF;
  1F1   :   FF;
  1F2   :   FF;
  1F3   :   FF;
  1F4   :   FF;
  1F5   :   FF;
  1F6   :   FF;
  1F7   :   FF;
  1F8   :   FF;
  1F9   :   FF;
  1FA   :   FF;
  1FB   :   FF;
  1FC   :   FF;
  1FD   :   FF;
  1FE   :   FF;
  1FF   :   FF;
  200   :   FF;
  201   :   FF;
  202   :   FF;
  203   :   FF;
  204   :   FF;
  205   :   FF;
  206   :   FF;
  207   :   FF;
  208   :   FF;
  209   :   FF;
  20A   :   FF;
  20B   :   FF;
  20C   :   FF;
  20D   :   FF;
  20E   :   FF;
  20F   :   FF;
  210   :   FF;
  211   :   FF;
  212   :   FF;
  213   :   FF;
  214   :   FF;
  215   :   FF;
  216   :   FF;
  217   :   FF;
  218   :   FF;
  219   :   FF;
  21A   :   FF;
  21B   :   FF;
  21C   :   FF;
  21D   :   FF;
  21E   :   FF;
  21F   :   FF;
  220   :   FF;
  221   :   FF;
  222   :   FF;
  223   :   FF;
  224   :   FF;
  225   :   FF;
  226   :   FF;
  227   :   FF;
  228   :   FF;
  229   :   FF;
  22A   :   FF;
  22B   :   FF;
  22C   :   FF;
  22D   :   FF;
  22E   :   FF;
  22F   :   FF;
  230   :   FF;
  231   :   FF;
  232   :   FF;
  233   :   FF;
  234   :   FF;
  235   :   FF;
  236   :   FF;
  237   :   FF;
  238   :   FF;
  239   :   FF;
  23A   :   FF;
  23B   :   FF;
  23C   :   FF;
  23D   :   FF;
  23E   :   FF;
  23F   :   FF;
  240   :   FF;
  241   :   FF;
  242   :   FF;
  243   :   FF;
  244   :   FF;
  245   :   FF;
  246   :   FF;
  247   :   FF;
  248   :   FF;
  249   :   FF;
  24A   :   FF;
  24B   :   FF;
  24C   :   FF;
  24D   :   FF;
  24E   :   FF;
  24F   :   FF;
  250   :   FF;
  251   :   FF;
  252   :   FF;
  253   :   FF;
  254   :   FF;
  255   :   FF;
  256   :   FF;
  257   :   FF;
  258   :   FF;
  259   :   FF;
  25A   :   FF;
  25B   :   FF;
  25C   :   FF;
  25D   :   FF;
  25E   :   FF;
  25F   :   FF;
  260   :   FF;
  261   :   FF;
  262   :   FF;
  263   :   FF;
  264   :   FF;
  265   :   FF;
  266   :   FF;
  267   :   FF;
  268   :   FF;
  269   :   FF;
  26A   :   FF;
  26B   :   FF;
  26C   :   FF;
  26D   :   FF;
  26E   :   FF;
  26F   :   FF;
  270   :   FF;
  271   :   FF;
  272   :   FF;
  273   :   FF;
  274   :   FF;
  275   :   FF;
  276   :   FF;
  277   :   FF;
  278   :   FF;
  279   :   FF;
  27A   :   FF;
  27B   :   FF;
  27C   :   FF;
  27D   :   FF;
  27E   :   FF;
  27F   :   FF;
  280   :   FF;
  281   :   FF;
  282   :   FF;
  283   :   FF;
  284   :   FF;
  285   :   FF;
  286   :   FF;
  287   :   FF;
  288   :   FF;
  289   :   FF;
  28A   :   FF;
  28B   :   FF;
  28C   :   FF;
  28D   :   FF;
  28E   :   FF;
  28F   :   FF;
  290   :   FF;
  291   :   FF;
  292   :   FF;
  293   :   FF;
  294   :   FF;
  295   :   FF;
  296   :   FF;
  297   :   FF;
  298   :   FF;
  299   :   FF;
  29A   :   FF;
  29B   :   FF;
  29C   :   FF;
  29D   :   FF;
  29E   :   FF;
  29F   :   FF;
  2A0   :   FF;
  2A1   :   FF;
  2A2   :   FF;
  2A3   :   FF;
  2A4   :   FF;
  2A5   :   FF;
  2A6   :   FF;
  2A7   :   FF;
  2A8   :   FF;
  2A9   :   FF;
  2AA   :   FF;
  2AB   :   FF;
  2AC   :   FF;
  2AD   :   FF;
  2AE   :   FF;
  2AF   :   FF;
  2B0   :   FF;
  2B1   :   FF;
  2B2   :   FF;
  2B3   :   FF;
  2B4   :   FF;
  2B5   :   FF;
  2B6   :   FF;
  2B7   :   FF;
  2B8   :   FF;
  2B9   :   FF;
  2BA   :   FF;
  2BB   :   FF;
  2BC   :   FF;
  2BD   :   FF;
  2BE   :   FF;
  2BF   :   FF;
  2C0   :   FF;
  2C1   :   FF;
  2C2   :   FF;
  2C3   :   FF;
  2C4   :   FF;
  2C5   :   FF;
  2C6   :   FF;
  2C7   :   FF;
  2C8   :   FF;
  2C9   :   FF;
  2CA   :   FF;
  2CB   :   FF;
  2CC   :   FF;
  2CD   :   FF;
  2CE   :   FF;
  2CF   :   FF;
  2D0   :   FF;
  2D1   :   FF;
  2D2   :   FF;
  2D3   :   FF;
  2D4   :   FF;
  2D5   :   FF;
  2D6   :   FF;
  2D7   :   FF;
  2D8   :   FF;
  2D9   :   FF;
  2DA   :   FF;
  2DB   :   FF;
  2DC   :   FF;
  2DD   :   FF;
  2DE   :   FF;
  2DF   :   FF;
  2E0   :   FF;
  2E1   :   FF;
  2E2   :   FF;
  2E3   :   FF;
  2E4   :   FF;
  2E5   :   FF;
  2E6   :   FF;
  2E7   :   FF;
  2E8   :   FF;
  2E9   :   FF;
  2EA   :   FF;
  2EB   :   FF;
  2EC   :   FF;
  2ED   :   FF;
  2EE   :   FF;
  2EF   :   FF;
  2F0   :   FF;
  2F1   :   FF;
  2F2   :   FF;
  2F3   :   FF;
  2F4   :   FF;
  2F5   :   FF;
  2F6   :   FF;
  2F7   :   FF;
  2F8   :   FF;
  2F9   :   FF;
  2FA   :   FF;
  2FB   :   FF;
  2FC   :   FF;
  2FD   :   FF;
  2FE   :   FF;
  2FF   :   FF;
  300   :   FF;
  301   :   FF;
  302   :   FF;
  303   :   FF;
  304   :   FF;
  305   :   FF;
  306   :   FF;
  307   :   FF;
  308   :   FF;
  309   :   FF;
  30A   :   FF;
  30B   :   FF;
  30C   :   FF;
  30D   :   FF;
  30E   :   FF;
  30F   :   FF;
  310   :   FF;
  311   :   FF;
  312   :   FF;
  313   :   FF;
  314   :   FF;
  315   :   FF;
  316   :   FF;
  317   :   FF;
  318   :   FF;
  319   :   FF;
  31A   :   FF;
  31B   :   FF;
  31C   :   FF;
  31D   :   FF;
  31E   :   FF;
  31F   :   FF;
  320   :   FF;
  321   :   FF;
  322   :   FF;
  323   :   FF;
  324   :   FF;
  325   :   FF;
  326   :   FF;
  327   :   FF;
  328   :   FF;
  329   :   FF;
  32A   :   FF;
  32B   :   FF;
  32C   :   FF;
  32D   :   FF;
  32E   :   FF;
  32F   :   FF;
  330   :   FF;
  331   :   FF;
  332   :   FF;
  333   :   FF;
  334   :   FF;
  335   :   FF;
  336   :   FF;
  337   :   FF;
  338   :   FF;
  339   :   FF;
  33A   :   FF;
  33B   :   FF;
  33C   :   FF;
  33D   :   FF;
  33E   :   FF;
  33F   :   FF;
  340   :   FF;
  341   :   FF;
  342   :   FF;
  343   :   FF;
  344   :   FF;
  345   :   FF;
  346   :   FF;
  347   :   FF;
  348   :   FF;
  349   :   FF;
  34A   :   FF;
  34B   :   FF;
  34C   :   FF;
  34D   :   FF;
  34E   :   FF;
  34F   :   FF;
  350   :   FF;
  351   :   FF;
  352   :   FF;
  353   :   FF;
  354   :   FF;
  355   :   FF;
  356   :   FF;
  357   :   FF;
  358   :   FF;
  359   :   FF;
  35A   :   FF;
  35B   :   FF;
  35C   :   FF;
  35D   :   FF;
  35E   :   FF;
  35F   :   FF;
  360   :   FF;
  361   :   FF;
  362   :   FF;
  363   :   FF;
  364   :   FF;
  365   :   FF;
  366   :   FF;
  367   :   FF;
  368   :   FF;
  369   :   FF;
  36A   :   FF;
  36B   :   FF;
  36C   :   FF;
  36D   :   FF;
  36E   :   FF;
  36F   :   FF;
  370   :   FF;
  371   :   FF;
  372   :   FF;
  373   :   FF;
  374   :   FF;
  375   :   FF;
  376   :   FF;
  377   :   FF;
  378   :   FF;
  379   :   FF;
  37A   :   FF;
  37B   :   FF;
  37C   :   FF;
  37D   :   FF;
  37E   :   FF;
  37F   :   FF;
  380   :   FF;
  381   :   FF;
  382   :   FF;
  383   :   FF;
  384   :   FF;
  385   :   FF;
  386   :   FF;
  387   :   FF;
  388   :   FF;
  389   :   FF;
  38A   :   FF;
  38B   :   FF;
  38C   :   FF;
  38D   :   FF;
  38E   :   FF;
  38F   :   FF;
  390   :   FF;
  391   :   FF;
  392   :   FF;
  393   :   FF;
  394   :   FF;
  395   :   FF;
  396   :   FF;
  397   :   FF;
  398   :   FF;
  399   :   FF;
  39A   :   FF;
  39B   :   FF;
  39C   :   FF;
  39D   :   FF;
  39E   :   FF;
  39F   :   FF;
  3A0   :   FF;
  3A1   :   FF;
  3A2   :   FF;
  3A3   :   FF;
  3A4   :   FF;
  3A5   :   FF;
  3A6   :   FF;
  3A7   :   FF;
  3A8   :   FF;
  3A9   :   FF;
  3AA   :   FF;
  3AB   :   FF;
  3AC   :   FF;
  3AD   :   FF;
  3AE   :   FF;
  3AF   :   FF;
  3B0   :   FF;
  3B1   :   FF;
  3B2   :   FF;
  3B3   :   FF;
  3B4   :   FF;
  3B5   :   FF;
  3B6   :   FF;
  3B7   :   FF;
  3B8   :   FF;
  3B9   :   FF;
  3BA   :   FF;
  3BB   :   FF;
  3BC   :   FF;
  3BD   :   FF;
  3BE   :   FF;
  3BF   :   FF;
  3C0   :   FF;
  3C1   :   FF;
  3C2   :   FF;
  3C3   :   FF;
  3C4   :   FF;
  3C5   :   FF;
  3C6   :   FF;
  3C7   :   FF;
  3C8   :   FF;
  3C9   :   FF;
  3CA   :   FF;
  3CB   :   FF;
  3CC   :   FF;
  3CD   :   FF;
  3CE   :   FF;
  3CF   :   FF;
  3D0   :   FF;
  3D1   :   FF;
  3D2   :   FF;
  3D3   :   FF;
  3D4   :   FF;
  3D5   :   FF;
  3D6   :   FF;
  3D7   :   FF;
  3D8   :   FF;
  3D9   :   FF;
  3DA   :   FF;
  3DB   :   FF;
  3DC   :   FF;
  3DD   :   FF;
  3DE   :   FF;
  3DF   :   FF;
  3E0   :   FF;
  3E1   :   FF;
  3E2   :   FF;
  3E3   :   FF;
  3E4   :   FF;
  3E5   :   FF;
  3E6   :   FF;
  3E7   :   FF;
  3E8   :   FF;
  3E9   :   FF;
  3EA   :   FF;
  3EB   :   FF;
  3EC   :   FF;
  3ED   :   FF;
  3EE   :   FF;
  3EF   :   FF;
  3F0   :   FF;
  3F1   :   FF;
  3F2   :   FF;
  3F3   :   FF;
  3F4   :   FF;
  3F5   :   FF;
  3F6   :   FF;
  3F7   :   FF;
  3F8   :   FF;
  3F9   :   FF;
  3FA   :   FF;
  3FB   :   FF;
  3FC   :   FF;
  3FD   :   FF;
  3FE   :   FF;
  3FF   :   FF;
  400   :   FF;
  401   :   FF;
  402   :   FF;
  403   :   FF;
  404   :   FF;
  405   :   FF;
  406   :   FF;
  407   :   FF;
  408   :   FF;
  409   :   FF;
  40A   :   FF;
  40B   :   FF;
  40C   :   FF;
  40D   :   FF;
  40E   :   FF;
  40F   :   FF;
  410   :   FF;
  411   :   FF;
  412   :   FF;
  413   :   FF;
  414   :   FF;
  415   :   FF;
  416   :   FF;
  417   :   FF;
  418   :   FF;
  419   :   FF;
  41A   :   FF;
  41B   :   FF;
  41C   :   FF;
  41D   :   FF;
  41E   :   FF;
  41F   :   FF;
  420   :   FF;
  421   :   FF;
  422   :   FF;
  423   :   FF;
  424   :   FF;
  425   :   FF;
  426   :   FF;
  427   :   FF;
  428   :   FF;
  429   :   FF;
  42A   :   FF;
  42B   :   FF;
  42C   :   FF;
  42D   :   FF;
  42E   :   FF;
  42F   :   FF;
  430   :   FF;
  431   :   FF;
  432   :   FF;
  433   :   FF;
  434   :   FF;
  435   :   FF;
  436   :   FF;
  437   :   FF;
  438   :   FF;
  439   :   FF;
  43A   :   FF;
  43B   :   FF;
  43C   :   FF;
  43D   :   FF;
  43E   :   FF;
  43F   :   FF;
  440   :   FF;
  441   :   FF;
  442   :   FF;
  443   :   FF;
  444   :   FF;
  445   :   FF;
  446   :   FF;
  447   :   FF;
  448   :   FF;
  449   :   FF;
  44A   :   FF;
  44B   :   FF;
  44C   :   FF;
  44D   :   FF;
  44E   :   FF;
  44F   :   FF;
  450   :   FF;
  451   :   FF;
  452   :   FF;
  453   :   FF;
  454   :   FF;
  455   :   FF;
  456   :   FF;
  457   :   FF;
  458   :   FF;
  459   :   FF;
  45A   :   FF;
  45B   :   FF;
  45C   :   FF;
  45D   :   FF;
  45E   :   FF;
  45F   :   FF;
  460   :   FF;
  461   :   FF;
  462   :   FF;
  463   :   FF;
  464   :   FF;
  465   :   FF;
  466   :   FF;
  467   :   FF;
  468   :   FF;
  469   :   FF;
  46A   :   FF;
  46B   :   FF;
  46C   :   FF;
  46D   :   FF;
  46E   :   FF;
  46F   :   FF;
  470   :   FF;
  471   :   FF;
  472   :   FF;
  473   :   FF;
  474   :   FF;
  475   :   FF;
  476   :   FF;
  477   :   FF;
  478   :   FF;
  479   :   FF;
  47A   :   FF;
  47B   :   FF;
  47C   :   FF;
  47D   :   FF;
  47E   :   FF;
  47F   :   FF;
  480   :   FF;
  481   :   FF;
  482   :   FF;
  483   :   FF;
  484   :   FF;
  485   :   FF;
  486   :   FF;
  487   :   FF;
  488   :   FF;
  489   :   FF;
  48A   :   FF;
  48B   :   FF;
  48C   :   FF;
  48D   :   FF;
  48E   :   FF;
  48F   :   FF;
  490   :   FF;
  491   :   FF;
  492   :   FF;
  493   :   FF;
  494   :   FF;
  495   :   FF;
  496   :   FF;
  497   :   FF;
  498   :   FF;
  499   :   FF;
  49A   :   FF;
  49B   :   FF;
  49C   :   FF;
  49D   :   FF;
  49E   :   FF;
  49F   :   FF;
  4A0   :   FF;
  4A1   :   FF;
  4A2   :   FF;
  4A3   :   FF;
  4A4   :   FF;
  4A5   :   FF;
  4A6   :   FF;
  4A7   :   FF;
  4A8   :   FF;
  4A9   :   FF;
  4AA   :   FF;
  4AB   :   FF;
  4AC   :   FF;
  4AD   :   FF;
  4AE   :   FF;
  4AF   :   FF;
  4B0   :   FF;
  4B1   :   FF;
  4B2   :   FF;
  4B3   :   FF;
  4B4   :   FF;
  4B5   :   FF;
  4B6   :   FF;
  4B7   :   FF;
  4B8   :   FF;
  4B9   :   FF;
  4BA   :   FF;
  4BB   :   FF;
  4BC   :   FF;
  4BD   :   FF;
  4BE   :   FF;
  4BF   :   FF;
  4C0   :   FF;
  4C1   :   FF;
  4C2   :   FF;
  4C3   :   FF;
  4C4   :   FF;
  4C5   :   FF;
  4C6   :   FF;
  4C7   :   FF;
  4C8   :   FF;
  4C9   :   FF;
  4CA   :   FF;
  4CB   :   FF;
  4CC   :   FF;
  4CD   :   FF;
  4CE   :   FF;
  4CF   :   FF;
  4D0   :   FF;
  4D1   :   FF;
  4D2   :   FF;
  4D3   :   FF;
  4D4   :   FF;
  4D5   :   FF;
  4D6   :   FF;
  4D7   :   FF;
  4D8   :   FF;
  4D9   :   FF;
  4DA   :   FF;
  4DB   :   FF;
  4DC   :   FF;
  4DD   :   FF;
  4DE   :   FF;
  4DF   :   FF;
  4E0   :   FF;
  4E1   :   FF;
  4E2   :   FF;
  4E3   :   FF;
  4E4   :   FF;
  4E5   :   FF;
  4E6   :   FF;
  4E7   :   FF;
  4E8   :   FF;
  4E9   :   FF;
  4EA   :   FF;
  4EB   :   FF;
  4EC   :   FF;
  4ED   :   FF;
  4EE   :   FF;
  4EF   :   FF;
  4F0   :   FF;
  4F1   :   FF;
  4F2   :   FF;
  4F3   :   FF;
  4F4   :   FF;
  4F5   :   FF;
  4F6   :   FF;
  4F7   :   FF;
  4F8   :   FF;
  4F9   :   FF;
  4FA   :   FF;
  4FB   :   FF;
  4FC   :   FF;
  4FD   :   FF;
  4FE   :   FF;
  4FF   :   FF;
  500   :   FF;
  501   :   FF;
  502   :   FF;
  503   :   FF;
  504   :   FF;
  505   :   FF;
  506   :   FF;
  507   :   FF;
  508   :   FF;
  509   :   FF;
  50A   :   FF;
  50B   :   FF;
  50C   :   FF;
  50D   :   FF;
  50E   :   FF;
  50F   :   FF;
  510   :   FF;
  511   :   FF;
  512   :   FF;
  513   :   FF;
  514   :   FF;
  515   :   FF;
  516   :   FF;
  517   :   FF;
  518   :   FF;
  519   :   FF;
  51A   :   FF;
  51B   :   FF;
  51C   :   FF;
  51D   :   FF;
  51E   :   FF;
  51F   :   FF;
  520   :   FF;
  521   :   FF;
  522   :   FF;
  523   :   FF;
  524   :   FF;
  525   :   FF;
  526   :   FF;
  527   :   FF;
  528   :   FF;
  529   :   FF;
  52A   :   FF;
  52B   :   FF;
  52C   :   FF;
  52D   :   FF;
  52E   :   FF;
  52F   :   FF;
  530   :   FF;
  531   :   FF;
  532   :   FF;
  533   :   FF;
  534   :   FF;
  535   :   FF;
  536   :   FF;
  537   :   FF;
  538   :   FF;
  539   :   FF;
  53A   :   FF;
  53B   :   FF;
  53C   :   FF;
  53D   :   FF;
  53E   :   FF;
  53F   :   FF;
  540   :   FF;
  541   :   FF;
  542   :   FF;
  543   :   FF;
  544   :   FF;
  545   :   FF;
  546   :   FF;
  547   :   FF;
  548   :   FF;
  549   :   FF;
  54A   :   FF;
  54B   :   FF;
  54C   :   FF;
  54D   :   FF;
  54E   :   FF;
  54F   :   FF;
  550   :   FF;
  551   :   FF;
  552   :   FF;
  553   :   FF;
  554   :   FF;
  555   :   FF;
  556   :   FF;
  557   :   FF;
  558   :   FF;
  559   :   FF;
  55A   :   FF;
  55B   :   FF;
  55C   :   FF;
  55D   :   FF;
  55E   :   FF;
  55F   :   FF;
  560   :   FF;
  561   :   FF;
  562   :   FF;
  563   :   FF;
  564   :   FF;
  565   :   FF;
  566   :   FF;
  567   :   FF;
  568   :   FF;
  569   :   FF;
  56A   :   FF;
  56B   :   FF;
  56C   :   FF;
  56D   :   FF;
  56E   :   FF;
  56F   :   FF;
  570   :   FF;
  571   :   FF;
  572   :   FF;
  573   :   FF;
  574   :   FF;
  575   :   FF;
  576   :   FF;
  577   :   FF;
  578   :   FF;
  579   :   FF;
  57A   :   FF;
  57B   :   FF;
  57C   :   FF;
  57D   :   FF;
  57E   :   FF;
  57F   :   FF;
  580   :   FF;
  581   :   FF;
  582   :   FF;
  583   :   FF;
  584   :   FF;
  585   :   FF;
  586   :   FF;
  587   :   FF;
  588   :   FF;
  589   :   FF;
  58A   :   FF;
  58B   :   FF;
  58C   :   FF;
  58D   :   FF;
  58E   :   FF;
  58F   :   FF;
  590   :   FF;
  591   :   FF;
  592   :   FF;
  593   :   FF;
  594   :   FF;
  595   :   FF;
  596   :   FF;
  597   :   FF;
  598   :   FF;
  599   :   FF;
  59A   :   FF;
  59B   :   FF;
  59C   :   FF;
  59D   :   FF;
  59E   :   FF;
  59F   :   FF;
  5A0   :   FF;
  5A1   :   FF;
  5A2   :   FF;
  5A3   :   FF;
  5A4   :   FF;
  5A5   :   FF;
  5A6   :   FF;
  5A7   :   FF;
  5A8   :   FF;
  5A9   :   FF;
  5AA   :   FF;
  5AB   :   FF;
  5AC   :   FF;
  5AD   :   FF;
  5AE   :   FF;
  5AF   :   FF;
  5B0   :   FF;
  5B1   :   FF;
  5B2   :   FF;
  5B3   :   FF;
  5B4   :   FF;
  5B5   :   FF;
  5B6   :   FF;
  5B7   :   FF;
  5B8   :   FF;
  5B9   :   FF;
  5BA   :   FF;
  5BB   :   FF;
  5BC   :   FF;
  5BD   :   FF;
  5BE   :   FF;
  5BF   :   FF;
  5C0   :   FF;
  5C1   :   FF;
  5C2   :   FF;
  5C3   :   FF;
  5C4   :   FF;
  5C5   :   FF;
  5C6   :   FF;
  5C7   :   FF;
  5C8   :   FF;
  5C9   :   FF;
  5CA   :   FF;
  5CB   :   FF;
  5CC   :   FF;
  5CD   :   FF;
  5CE   :   FF;
  5CF   :   FF;
  5D0   :   FF;
  5D1   :   FF;
  5D2   :   FF;
  5D3   :   FF;
  5D4   :   FF;
  5D5   :   FF;
  5D6   :   FF;
  5D7   :   FF;
  5D8   :   FF;
  5D9   :   FF;
  5DA   :   FF;
  5DB   :   FF;
  5DC   :   FF;
  5DD   :   FF;
  5DE   :   FF;
  5DF   :   FF;
  5E0   :   FF;
  5E1   :   FF;
  5E2   :   FF;
  5E3   :   FF;
  5E4   :   FF;
  5E5   :   FF;
  5E6   :   FF;
  5E7   :   FF;
  5E8   :   FF;
  5E9   :   FF;
  5EA   :   FF;
  5EB   :   FF;
  5EC   :   FF;
  5ED   :   FF;
  5EE   :   FF;
  5EF   :   FF;
  5F0   :   FF;
  5F1   :   FF;
  5F2   :   FF;
  5F3   :   FF;
  5F4   :   FF;
  5F5   :   FF;
  5F6   :   FF;
  5F7   :   FF;
  5F8   :   FF;
  5F9   :   FF;
  5FA   :   FF;
  5FB   :   FF;
  5FC   :   FF;
  5FD   :   FF;
  5FE   :   FF;
  5FF   :   FF;
  600   :   FF;
  601   :   FF;
  602   :   FF;
  603   :   FF;
  604   :   FF;
  605   :   FF;
  606   :   FF;
  607   :   FF;
  608   :   FF;
  609   :   FF;
  60A   :   FF;
  60B   :   FF;
  60C   :   FF;
  60D   :   FF;
  60E   :   FF;
  60F   :   FF;
  610   :   FF;
  611   :   FF;
  612   :   FF;
  613   :   FF;
  614   :   FF;
  615   :   FF;
  616   :   FF;
  617   :   FF;
  618   :   FF;
  619   :   FF;
  61A   :   FF;
  61B   :   FF;
  61C   :   FF;
  61D   :   FF;
  61E   :   FF;
  61F   :   FF;
  620   :   FF;
  621   :   FF;
  622   :   FF;
  623   :   FF;
  624   :   FF;
  625   :   FF;
  626   :   FF;
  627   :   FF;
  628   :   FF;
  629   :   FF;
  62A   :   FF;
  62B   :   FF;
  62C   :   FF;
  62D   :   FF;
  62E   :   FF;
  62F   :   FF;
  630   :   FF;
  631   :   FF;
  632   :   FF;
  633   :   FF;
  634   :   FF;
  635   :   FF;
  636   :   FF;
  637   :   FF;
  638   :   FF;
  639   :   FF;
  63A   :   FF;
  63B   :   FF;
  63C   :   FF;
  63D   :   FF;
  63E   :   FF;
  63F   :   FF;
  640   :   FF;
  641   :   FF;
  642   :   FF;
  643   :   FF;
  644   :   FF;
  645   :   FF;
  646   :   FF;
  647   :   FF;
  648   :   FF;
  649   :   FF;
  64A   :   FF;
  64B   :   FF;
  64C   :   FF;
  64D   :   FF;
  64E   :   FF;
  64F   :   FF;
  650   :   FF;
  651   :   FF;
  652   :   FF;
  653   :   FF;
  654   :   FF;
  655   :   FF;
  656   :   FF;
  657   :   FF;
  658   :   FF;
  659   :   FF;
  65A   :   FF;
  65B   :   FF;
  65C   :   FF;
  65D   :   FF;
  65E   :   FF;
  65F   :   FF;
  660   :   FF;
  661   :   FF;
  662   :   FF;
  663   :   FF;
  664   :   FF;
  665   :   FF;
  666   :   FF;
  667   :   FF;
  668   :   FF;
  669   :   FF;
  66A   :   FF;
  66B   :   FF;
  66C   :   FF;
  66D   :   FF;
  66E   :   FF;
  66F   :   FF;
  670   :   FF;
  671   :   FF;
  672   :   FF;
  673   :   FF;
  674   :   FF;
  675   :   FF;
  676   :   FF;
  677   :   FF;
  678   :   FF;
  679   :   FF;
  67A   :   FF;
  67B   :   FF;
  67C   :   FF;
  67D   :   FF;
  67E   :   FF;
  67F   :   FF;
  680   :   FF;
  681   :   FF;
  682   :   FF;
  683   :   FF;
  684   :   FF;
  685   :   FF;
  686   :   FF;
  687   :   FF;
  688   :   FF;
  689   :   FF;
  68A   :   FF;
  68B   :   FF;
  68C   :   FF;
  68D   :   FF;
  68E   :   FF;
  68F   :   FF;
  690   :   FF;
  691   :   FF;
  692   :   FF;
  693   :   FF;
  694   :   FF;
  695   :   FF;
  696   :   FF;
  697   :   FF;
  698   :   FF;
  699   :   FF;
  69A   :   FF;
  69B   :   FF;
  69C   :   FF;
  69D   :   FF;
  69E   :   FF;
  69F   :   FF;
  6A0   :   FF;
  6A1   :   FF;
  6A2   :   FF;
  6A3   :   FF;
  6A4   :   FF;
  6A5   :   FF;
  6A6   :   FF;
  6A7   :   FF;
  6A8   :   FF;
  6A9   :   FF;
  6AA   :   FF;
  6AB   :   FF;
  6AC   :   FF;
  6AD   :   FF;
  6AE   :   FF;
  6AF   :   FF;
  6B0   :   FF;
  6B1   :   FF;
  6B2   :   FF;
  6B3   :   FF;
  6B4   :   FF;
  6B5   :   FF;
  6B6   :   FF;
  6B7   :   FF;
  6B8   :   FF;
  6B9   :   FF;
  6BA   :   FF;
  6BB   :   FF;
  6BC   :   FF;
  6BD   :   FF;
  6BE   :   FF;
  6BF   :   FF;
  6C0   :   FF;
  6C1   :   FF;
  6C2   :   FF;
  6C3   :   FF;
  6C4   :   FF;
  6C5   :   FF;
  6C6   :   FF;
  6C7   :   FF;
  6C8   :   FF;
  6C9   :   FF;
  6CA   :   FF;
  6CB   :   FF;
  6CC   :   FF;
  6CD   :   FF;
  6CE   :   FF;
  6CF   :   FF;
  6D0   :   FF;
  6D1   :   FF;
  6D2   :   FF;
  6D3   :   FF;
  6D4   :   FF;
  6D5   :   FF;
  6D6   :   FF;
  6D7   :   FF;
  6D8   :   FF;
  6D9   :   FF;
  6DA   :   FF;
  6DB   :   FF;
  6DC   :   FF;
  6DD   :   FF;
  6DE   :   FF;
  6DF   :   FF;
  6E0   :   FF;
  6E1   :   FF;
  6E2   :   FF;
  6E3   :   FF;
  6E4   :   FF;
  6E5   :   FF;
  6E6   :   FF;
  6E7   :   FF;
  6E8   :   FF;
  6E9   :   FF;
  6EA   :   FF;
  6EB   :   FF;
  6EC   :   FF;
  6ED   :   FF;
  6EE   :   FF;
  6EF   :   FF;
  6F0   :   FF;
  6F1   :   FF;
  6F2   :   FF;
  6F3   :   FF;
  6F4   :   FF;
  6F5   :   FF;
  6F6   :   FF;
  6F7   :   FF;
  6F8   :   FF;
  6F9   :   FF;
  6FA   :   FF;
  6FB   :   FF;
  6FC   :   FF;
  6FD   :   FF;
  6FE   :   FF;
  6FF   :   FF;
  700   :   FF;
  701   :   FF;
  702   :   FF;
  703   :   FF;
  704   :   FF;
  705   :   FF;
  706   :   FF;
  707   :   FF;
  708   :   FF;
  709   :   FF;
  70A   :   FF;
  70B   :   FF;
  70C   :   FF;
  70D   :   FF;
  70E   :   FF;
  70F   :   FF;
  710   :   FF;
  711   :   FF;
  712   :   FF;
  713   :   FF;
  714   :   FF;
  715   :   FF;
  716   :   FF;
  717   :   FF;
  718   :   FF;
  719   :   FF;
  71A   :   FF;
  71B   :   FF;
  71C   :   FF;
  71D   :   FF;
  71E   :   FF;
  71F   :   FF;
  720   :   FF;
  721   :   FF;
  722   :   FF;
  723   :   FF;
  724   :   FF;
  725   :   FF;
  726   :   FF;
  727   :   FF;
  728   :   FF;
  729   :   FF;
  72A   :   FF;
  72B   :   FF;
  72C   :   FF;
  72D   :   FF;
  72E   :   FF;
  72F   :   FF;
  730   :   FF;
  731   :   FF;
  732   :   FF;
  733   :   FF;
  734   :   FF;
  735   :   FF;
  736   :   FF;
  737   :   FF;
  738   :   FF;
  739   :   FF;
  73A   :   FF;
  73B   :   FF;
  73C   :   FF;
  73D   :   FF;
  73E   :   FF;
  73F   :   FF;
  740   :   FF;
  741   :   FF;
  742   :   FF;
  743   :   FF;
  744   :   FF;
  745   :   FF;
  746   :   FF;
  747   :   FF;
  748   :   FF;
  749   :   FF;
  74A   :   FF;
  74B   :   FF;
  74C   :   FF;
  74D   :   FF;
  74E   :   FF;
  74F   :   FF;
  750   :   FF;
  751   :   FF;
  752   :   FF;
  753   :   FF;
  754   :   FF;
  755   :   FF;
  756   :   FF;
  757   :   FF;
  758   :   FF;
  759   :   FF;
  75A   :   FF;
  75B   :   FF;
  75C   :   FF;
  75D   :   FF;
  75E   :   FF;
  75F   :   FF;
  760   :   FF;
  761   :   FF;
  762   :   FF;
  763   :   FF;
  764   :   FF;
  765   :   FF;
  766   :   FF;
  767   :   FF;
  768   :   FF;
  769   :   FF;
  76A   :   FF;
  76B   :   FF;
  76C   :   FF;
  76D   :   FF;
  76E   :   FF;
  76F   :   FF;
  770   :   FF;
  771   :   FF;
  772   :   FF;
  773   :   FF;
  774   :   FF;
  775   :   FF;
  776   :   FF;
  777   :   FF;
  778   :   FF;
  779   :   FF;
  77A   :   FF;
  77B   :   FF;
  77C   :   FF;
  77D   :   FF;
  77E   :   FF;
  77F   :   FF;
  780   :   FF;
  781   :   FF;
  782   :   FF;
  783   :   FF;
  784   :   FF;
  785   :   FF;
  786   :   FF;
  787   :   FF;
  788   :   FF;
  789   :   FF;
  78A   :   FF;
  78B   :   FF;
  78C   :   FF;
  78D   :   FF;
  78E   :   FF;
  78F   :   FF;
  790   :   FF;
  791   :   FF;
  792   :   FF;
  793   :   FF;
  794   :   FF;
  795   :   FF;
  796   :   FF;
  797   :   FF;
  798   :   FF;
  799   :   FF;
  79A   :   FF;
  79B   :   FF;
  79C   :   FF;
  79D   :   FF;
  79E   :   FF;
  79F   :   FF;
  7A0   :   FF;
  7A1   :   FF;
  7A2   :   FF;
  7A3   :   FF;
  7A4   :   FF;
  7A5   :   FF;
  7A6   :   FF;
  7A7   :   FF;
  7A8   :   FF;
  7A9   :   FF;
  7AA   :   FF;
  7AB   :   FF;
  7AC   :   FF;
  7AD   :   FF;
  7AE   :   FF;
  7AF   :   FF;
  7B0   :   FF;
  7B1   :   FF;
  7B2   :   FF;
  7B3   :   FF;
  7B4   :   FF;
  7B5   :   FF;
  7B6   :   FF;
  7B7   :   FF;
  7B8   :   FF;
  7B9   :   FF;
  7BA   :   FF;
  7BB   :   FF;
  7BC   :   FF;
  7BD   :   FF;
  7BE   :   FF;
  7BF   :   FF;
  7C0   :   FF;
  7C1   :   FF;
  7C2   :   FF;
  7C3   :   FF;
  7C4   :   FF;
  7C5   :   FF;
  7C6   :   FF;
  7C7   :   FF;
  7C8   :   FF;
  7C9   :   FF;
  7CA   :   FF;
  7CB   :   FF;
  7CC   :   FF;
  7CD   :   FF;
  7CE   :   FF;
  7CF   :   FF;
  7D0   :   FF;
  7D1   :   FF;
  7D2   :   FF;
  7D3   :   FF;
  7D4   :   FF;
  7D5   :   FF;
  7D6   :   FF;
  7D7   :   FF;
  7D8   :   FF;
  7D9   :   FF;
  7DA   :   FF;
  7DB   :   FF;
  7DC   :   FF;
  7DD   :   FF;
  7DE   :   FF;
  7DF   :   FF;
  7E0   :   FF;
  7E1   :   FF;
  7E2   :   FF;
  7E3   :   FF;
  7E4   :   FF;
  7E5   :   FF;
  7E6   :   FF;
  7E7   :   FF;
  7E8   :   FF;
  7E9   :   FF;
  7EA   :   FF;
  7EB   :   FF;
  7EC   :   FF;
  7ED   :   FF;
  7EE   :   FF;
  7EF   :   FF;
  7F0   :   FF;
  7F1   :   FF;
  7F2   :   FF;
  7F3   :   FF;
  7F4   :   FF;
  7F5   :   FF;
  7F6   :   FF;
  7F7   :   FF;
  7F8   :   FF;
  7F9   :   FF;
  7FA   :   FF;
  7FB   :   FF;
  7FC   :   FF;
  7FD   :   FF;
  7FE   :   FF;
  7FF   :   FF;
  800   :   FF;
  801   :   FF;
  802   :   FF;
  803   :   FF;
  804   :   FF;
  805   :   FF;
  806   :   FF;
  807   :   FF;
  808   :   FF;
  809   :   FF;
  80A   :   FF;
  80B   :   FF;
  80C   :   FF;
  80D   :   FF;
  80E   :   FF;
  80F   :   FF;
  810   :   FF;
  811   :   FF;
  812   :   FF;
  813   :   FF;
  814   :   FF;
  815   :   FF;
  816   :   FF;
  817   :   FF;
  818   :   FF;
  819   :   FF;
  81A   :   FF;
  81B   :   FF;
  81C   :   FF;
  81D   :   FF;
  81E   :   FF;
  81F   :   FF;
  820   :   FF;
  821   :   FF;
  822   :   FF;
  823   :   FF;
  824   :   FF;
  825   :   FF;
  826   :   FF;
  827   :   FF;
  828   :   FF;
  829   :   FF;
  82A   :   FF;
  82B   :   FF;
  82C   :   FF;
  82D   :   FF;
  82E   :   FF;
  82F   :   FF;
  830   :   FF;
  831   :   FF;
  832   :   FF;
  833   :   FF;
  834   :   FF;
  835   :   FF;
  836   :   FF;
  837   :   FF;
  838   :   FF;
  839   :   FF;
  83A   :   FF;
  83B   :   FF;
  83C   :   FF;
  83D   :   FF;
  83E   :   FF;
  83F   :   FF;
  840   :   FF;
  841   :   FF;
  842   :   FF;
  843   :   FF;
  844   :   FF;
  845   :   FF;
  846   :   FF;
  847   :   FF;
  848   :   FF;
  849   :   FF;
  84A   :   FF;
  84B   :   FF;
  84C   :   FF;
  84D   :   FF;
  84E   :   FF;
  84F   :   FF;
  850   :   FF;
  851   :   FF;
  852   :   FF;
  853   :   FF;
  854   :   FF;
  855   :   FF;
  856   :   FF;
  857   :   FF;
  858   :   FF;
  859   :   FF;
  85A   :   FF;
  85B   :   FF;
  85C   :   FF;
  85D   :   FF;
  85E   :   FF;
  85F   :   FF;
  860   :   FF;
  861   :   FF;
  862   :   FF;
  863   :   FF;
  864   :   FF;
  865   :   FF;
  866   :   FF;
  867   :   FF;
  868   :   FF;
  869   :   FF;
  86A   :   FF;
  86B   :   FF;
  86C   :   FF;
  86D   :   FF;
  86E   :   FF;
  86F   :   FF;
  870   :   FF;
  871   :   FF;
  872   :   FF;
  873   :   FF;
  874   :   FF;
  875   :   FF;
  876   :   FF;
  877   :   FF;
  878   :   FF;
  879   :   FF;
  87A   :   FF;
  87B   :   FF;
  87C   :   FF;
  87D   :   FF;
  87E   :   FF;
  87F   :   FF;
  880   :   FF;
  881   :   FF;
  882   :   FF;
  883   :   FF;
  884   :   FF;
  885   :   FF;
  886   :   FF;
  887   :   FF;
  888   :   FF;
  889   :   FF;
  88A   :   FF;
  88B   :   FF;
  88C   :   FF;
  88D   :   FF;
  88E   :   FF;
  88F   :   FF;
  890   :   FF;
  891   :   FF;
  892   :   FF;
  893   :   FF;
  894   :   FF;
  895   :   FF;
  896   :   FF;
  897   :   FF;
  898   :   FF;
  899   :   FF;
  89A   :   FF;
  89B   :   FF;
  89C   :   FF;
  89D   :   FF;
  89E   :   FF;
  89F   :   FF;
  8A0   :   FF;
  8A1   :   FF;
  8A2   :   FF;
  8A3   :   FF;
  8A4   :   FF;
  8A5   :   FF;
  8A6   :   FF;
  8A7   :   FF;
  8A8   :   FF;
  8A9   :   FF;
  8AA   :   FF;
  8AB   :   FF;
  8AC   :   FF;
  8AD   :   FF;
  8AE   :   FF;
  8AF   :   FF;
  8B0   :   FF;
  8B1   :   FF;
  8B2   :   FF;
  8B3   :   FF;
  8B4   :   FF;
  8B5   :   FF;
  8B6   :   FF;
  8B7   :   FF;
  8B8   :   FF;
  8B9   :   FF;
  8BA   :   FF;
  8BB   :   FF;
  8BC   :   FF;
  8BD   :   FF;
  8BE   :   FF;
  8BF   :   FF;
  8C0   :   FF;
  8C1   :   FF;
  8C2   :   FF;
  8C3   :   FF;
  8C4   :   FF;
  8C5   :   FF;
  8C6   :   FF;
  8C7   :   FF;
  8C8   :   FF;
  8C9   :   FF;
  8CA   :   FF;
  8CB   :   FF;
  8CC   :   FF;
  8CD   :   FF;
  8CE   :   FF;
  8CF   :   FF;
  8D0   :   FF;
  8D1   :   FF;
  8D2   :   FF;
  8D3   :   FF;
  8D4   :   FF;
  8D5   :   FF;
  8D6   :   FF;
  8D7   :   FF;
  8D8   :   FF;
  8D9   :   FF;
  8DA   :   FF;
  8DB   :   FF;
  8DC   :   FF;
  8DD   :   FF;
  8DE   :   FF;
  8DF   :   FF;
  8E0   :   FF;
  8E1   :   FF;
  8E2   :   FF;
  8E3   :   FF;
  8E4   :   FF;
  8E5   :   FF;
  8E6   :   FF;
  8E7   :   FF;
  8E8   :   FF;
  8E9   :   FF;
  8EA   :   FF;
  8EB   :   FF;
  8EC   :   FF;
  8ED   :   FF;
  8EE   :   FF;
  8EF   :   FF;
  8F0   :   FF;
  8F1   :   FF;
  8F2   :   FF;
  8F3   :   FF;
  8F4   :   FF;
  8F5   :   FF;
  8F6   :   FF;
  8F7   :   FF;
  8F8   :   FF;
  8F9   :   FF;
  8FA   :   FF;
  8FB   :   FF;
  8FC   :   FF;
  8FD   :   FF;
  8FE   :   FF;
  8FF   :   FF;
  900   :   FF;
  901   :   FF;
  902   :   FF;
  903   :   FF;
  904   :   FF;
  905   :   FF;
  906   :   FF;
  907   :   FF;
  908   :   FF;
  909   :   FF;
  90A   :   FF;
  90B   :   FF;
  90C   :   FF;
  90D   :   FF;
  90E   :   FF;
  90F   :   FF;
  910   :   FF;
  911   :   FF;
  912   :   FF;
  913   :   FF;
  914   :   FF;
  915   :   FF;
  916   :   FF;
  917   :   FF;
  918   :   FF;
  919   :   FF;
  91A   :   FF;
  91B   :   FF;
  91C   :   FF;
  91D   :   FF;
  91E   :   FF;
  91F   :   FF;
  920   :   FF;
  921   :   FF;
  922   :   FF;
  923   :   FF;
  924   :   FF;
  925   :   FF;
  926   :   FF;
  927   :   FF;
  928   :   FF;
  929   :   FF;
  92A   :   FF;
  92B   :   FF;
  92C   :   FF;
  92D   :   FF;
  92E   :   FF;
  92F   :   FF;
  930   :   FF;
  931   :   FF;
  932   :   FF;
  933   :   FF;
  934   :   FF;
  935   :   FF;
  936   :   FF;
  937   :   FF;
  938   :   FF;
  939   :   FF;
  93A   :   FF;
  93B   :   FF;
  93C   :   FF;
  93D   :   FF;
  93E   :   FF;
  93F   :   FF;
  940   :   FF;
  941   :   FF;
  942   :   FF;
  943   :   FF;
  944   :   FF;
  945   :   FF;
  946   :   FF;
  947   :   FF;
  948   :   FF;
  949   :   FF;
  94A   :   FF;
  94B   :   FF;
  94C   :   FF;
  94D   :   FF;
  94E   :   FF;
  94F   :   FF;
  950   :   FF;
  951   :   FF;
  952   :   FF;
  953   :   FF;
  954   :   FF;
  955   :   FF;
  956   :   FF;
  957   :   FF;
  958   :   FF;
  959   :   FF;
  95A   :   FF;
  95B   :   FF;
  95C   :   FF;
  95D   :   FF;
  95E   :   FF;
  95F   :   FF;
  960   :   FF;
  961   :   FF;
  962   :   FF;
  963   :   FF;
  964   :   FF;
  965   :   FF;
  966   :   FF;
  967   :   FF;
  968   :   FF;
  969   :   FF;
  96A   :   FF;
  96B   :   FF;
  96C   :   FF;
  96D   :   FF;
  96E   :   FF;
  96F   :   FF;
  970   :   FF;
  971   :   FF;
  972   :   FF;
  973   :   FF;
  974   :   FF;
  975   :   FF;
  976   :   FF;
  977   :   FF;
  978   :   FF;
  979   :   FF;
  97A   :   FF;
  97B   :   FF;
  97C   :   FF;
  97D   :   FF;
  97E   :   FF;
  97F   :   FF;
  980   :   FF;
  981   :   FF;
  982   :   FF;
  983   :   FF;
  984   :   FF;
  985   :   FF;
  986   :   FF;
  987   :   FF;
  988   :   FF;
  989   :   FF;
  98A   :   FF;
  98B   :   FF;
  98C   :   FF;
  98D   :   FF;
  98E   :   FF;
  98F   :   FF;
  990   :   FF;
  991   :   FF;
  992   :   FF;
  993   :   FF;
  994   :   FF;
  995   :   FF;
  996   :   FF;
  997   :   FF;
  998   :   FF;
  999   :   FF;
  99A   :   FF;
  99B   :   FF;
  99C   :   FF;
  99D   :   FF;
  99E   :   FF;
  99F   :   FF;
  9A0   :   FF;
  9A1   :   FF;
  9A2   :   FF;
  9A3   :   FF;
  9A4   :   FF;
  9A5   :   FF;
  9A6   :   FF;
  9A7   :   FF;
  9A8   :   FF;
  9A9   :   FF;
  9AA   :   FF;
  9AB   :   FF;
  9AC   :   FF;
  9AD   :   FF;
  9AE   :   FF;
  9AF   :   FF;
  9B0   :   FF;
  9B1   :   FF;
  9B2   :   FF;
  9B3   :   FF;
  9B4   :   FF;
  9B5   :   FF;
  9B6   :   FF;
  9B7   :   FF;
  9B8   :   FF;
  9B9   :   FF;
  9BA   :   FF;
  9BB   :   FF;
  9BC   :   FF;
  9BD   :   FF;
  9BE   :   FF;
  9BF   :   FF;
  9C0   :   FF;
  9C1   :   FF;
  9C2   :   FF;
  9C3   :   FF;
  9C4   :   FF;
  9C5   :   FF;
  9C6   :   FF;
  9C7   :   FF;
  9C8   :   FF;
  9C9   :   FF;
  9CA   :   FF;
  9CB   :   FF;
  9CC   :   FF;
  9CD   :   FF;
  9CE   :   FF;
  9CF   :   FF;
  9D0   :   FF;
  9D1   :   FF;
  9D2   :   FF;
  9D3   :   FF;
  9D4   :   FF;
  9D5   :   FF;
  9D6   :   FF;
  9D7   :   FF;
  9D8   :   FF;
  9D9   :   FF;
  9DA   :   FF;
  9DB   :   FF;
  9DC   :   FF;
  9DD   :   FF;
  9DE   :   FF;
  9DF   :   FF;
  9E0   :   FF;
  9E1   :   FF;
  9E2   :   FF;
  9E3   :   FF;
  9E4   :   FF;
  9E5   :   FF;
  9E6   :   FF;
  9E7   :   FF;
  9E8   :   FF;
  9E9   :   FF;
  9EA   :   FF;
  9EB   :   FF;
  9EC   :   FF;
  9ED   :   FF;
  9EE   :   FF;
  9EF   :   FF;
  9F0   :   FF;
  9F1   :   FF;
  9F2   :   FF;
  9F3   :   FF;
  9F4   :   FF;
  9F5   :   FF;
  9F6   :   FF;
  9F7   :   FF;
  9F8   :   FF;
  9F9   :   FF;
  9FA   :   FF;
  9FB   :   FF;
  9FC   :   FF;
  9FD   :   FF;
  9FE   :   FF;
  9FF   :   FF;
  A00   :   FF;
  A01   :   FF;
  A02   :   FF;
  A03   :   FF;
  A04   :   FF;
  A05   :   FF;
  A06   :   FF;
  A07   :   FF;
  A08   :   FF;
  A09   :   FF;
  A0A   :   FF;
  A0B   :   FF;
  A0C   :   FF;
  A0D   :   FF;
  A0E   :   FF;
  A0F   :   FF;
  A10   :   FF;
  A11   :   FF;
  A12   :   FF;
  A13   :   FF;
  A14   :   FF;
  A15   :   FF;
  A16   :   FF;
  A17   :   FF;
  A18   :   FF;
  A19   :   FF;
  A1A   :   FF;
  A1B   :   FF;
  A1C   :   FF;
  A1D   :   FF;
  A1E   :   FF;
  A1F   :   FF;
  A20   :   FF;
  A21   :   FF;
  A22   :   FF;
  A23   :   FF;
  A24   :   FF;
  A25   :   FF;
  A26   :   FF;
  A27   :   FF;
  A28   :   FF;
  A29   :   FF;
  A2A   :   FF;
  A2B   :   FF;
  A2C   :   FF;
  A2D   :   FF;
  A2E   :   FF;
  A2F   :   FF;
  A30   :   FF;
  A31   :   FF;
  A32   :   FF;
  A33   :   FF;
  A34   :   FF;
  A35   :   FF;
  A36   :   FF;
  A37   :   FF;
  A38   :   FF;
  A39   :   FF;
  A3A   :   FF;
  A3B   :   FF;
  A3C   :   FF;
  A3D   :   FF;
  A3E   :   FF;
  A3F   :   FF;
  A40   :   FF;
  A41   :   FF;
  A42   :   FF;
  A43   :   FF;
  A44   :   FF;
  A45   :   FF;
  A46   :   FF;
  A47   :   FF;
  A48   :   FF;
  A49   :   FF;
  A4A   :   FF;
  A4B   :   FF;
  A4C   :   FF;
  A4D   :   FF;
  A4E   :   FF;
  A4F   :   FF;
  A50   :   FF;
  A51   :   FF;
  A52   :   FF;
  A53   :   FF;
  A54   :   FF;
  A55   :   FF;
  A56   :   FF;
  A57   :   FF;
  A58   :   FF;
  A59   :   FF;
  A5A   :   FF;
  A5B   :   FF;
  A5C   :   FF;
  A5D   :   FF;
  A5E   :   FF;
  A5F   :   FF;
  A60   :   FF;
  A61   :   FF;
  A62   :   FF;
  A63   :   FF;
  A64   :   FF;
  A65   :   FF;
  A66   :   FF;
  A67   :   FF;
  A68   :   FF;
  A69   :   FF;
  A6A   :   FF;
  A6B   :   FF;
  A6C   :   FF;
  A6D   :   FF;
  A6E   :   FF;
  A6F   :   FF;
  A70   :   FF;
  A71   :   FF;
  A72   :   FF;
  A73   :   FF;
  A74   :   FF;
  A75   :   FF;
  A76   :   FF;
  A77   :   FF;
  A78   :   FF;
  A79   :   FF;
  A7A   :   FF;
  A7B   :   FF;
  A7C   :   FF;
  A7D   :   FF;
  A7E   :   FF;
  A7F   :   FF;
  A80   :   FF;
  A81   :   FF;
  A82   :   FF;
  A83   :   FF;
  A84   :   FF;
  A85   :   FF;
  A86   :   FF;
  A87   :   FF;
  A88   :   FF;
  A89   :   FF;
  A8A   :   FF;
  A8B   :   FF;
  A8C   :   FF;
  A8D   :   FF;
  A8E   :   FF;
  A8F   :   FF;
  A90   :   FF;
  A91   :   FF;
  A92   :   FF;
  A93   :   FF;
  A94   :   FF;
  A95   :   FF;
  A96   :   FF;
  A97   :   FF;
  A98   :   FF;
  A99   :   FF;
  A9A   :   FF;
  A9B   :   FF;
  A9C   :   FF;
  A9D   :   FF;
  A9E   :   FF;
  A9F   :   FF;
  AA0   :   FF;
  AA1   :   FF;
  AA2   :   FF;
  AA3   :   FF;
  AA4   :   FF;
  AA5   :   FF;
  AA6   :   FF;
  AA7   :   FF;
  AA8   :   FF;
  AA9   :   FF;
  AAA   :   FF;
  AAB   :   FF;
  AAC   :   FF;
  AAD   :   FF;
  AAE   :   FF;
  AAF   :   FF;
  AB0   :   FF;
  AB1   :   FF;
  AB2   :   FF;
  AB3   :   FF;
  AB4   :   FF;
  AB5   :   FF;
  AB6   :   FF;
  AB7   :   FF;
  AB8   :   FF;
  AB9   :   FF;
  ABA   :   FF;
  ABB   :   FF;
  ABC   :   FF;
  ABD   :   FF;
  ABE   :   FF;
  ABF   :   FF;
  AC0   :   FF;
  AC1   :   FF;
  AC2   :   FF;
  AC3   :   FF;
  AC4   :   FF;
  AC5   :   FF;
  AC6   :   FF;
  AC7   :   FF;
  AC8   :   FF;
  AC9   :   FF;
  ACA   :   FF;
  ACB   :   FF;
  ACC   :   FF;
  ACD   :   FF;
  ACE   :   FF;
  ACF   :   FF;
  AD0   :   FF;
  AD1   :   FF;
  AD2   :   FF;
  AD3   :   FF;
  AD4   :   FF;
  AD5   :   FF;
  AD6   :   FF;
  AD7   :   FF;
  AD8   :   FF;
  AD9   :   FF;
  ADA   :   FF;
  ADB   :   FF;
  ADC   :   FF;
  ADD   :   FF;
  ADE   :   FF;
  ADF   :   FF;
  AE0   :   FF;
  AE1   :   FF;
  AE2   :   FF;
  AE3   :   FF;
  AE4   :   FF;
  AE5   :   FF;
  AE6   :   FF;
  AE7   :   FF;
  AE8   :   FF;
  AE9   :   FF;
  AEA   :   FF;
  AEB   :   FF;
  AEC   :   FF;
  AED   :   FF;
  AEE   :   FF;
  AEF   :   FF;
  AF0   :   FF;
  AF1   :   FF;
  AF2   :   FF;
  AF3   :   FF;
  AF4   :   FF;
  AF5   :   FF;
  AF6   :   FF;
  AF7   :   FF;
  AF8   :   FF;
  AF9   :   FF;
  AFA   :   FF;
  AFB   :   FF;
  AFC   :   FF;
  AFD   :   FF;
  AFE   :   FF;
  AFF   :   FF;
  B00   :   FF;
  B01   :   FF;
  B02   :   FF;
  B03   :   FF;
  B04   :   FF;
  B05   :   FF;
  B06   :   FF;
  B07   :   FF;
  B08   :   FF;
  B09   :   FF;
  B0A   :   FF;
  B0B   :   FF;
  B0C   :   FF;
  B0D   :   FF;
  B0E   :   FF;
  B0F   :   FF;
  B10   :   FF;
  B11   :   FF;
  B12   :   FF;
  B13   :   FF;
  B14   :   FF;
  B15   :   FF;
  B16   :   FF;
  B17   :   FF;
  B18   :   FF;
  B19   :   FF;
  B1A   :   FF;
  B1B   :   FF;
  B1C   :   FF;
  B1D   :   FF;
  B1E   :   FF;
  B1F   :   FF;
  B20   :   FF;
  B21   :   FF;
  B22   :   FF;
  B23   :   FF;
  B24   :   FF;
  B25   :   FF;
  B26   :   FF;
  B27   :   FF;
  B28   :   FF;
  B29   :   FF;
  B2A   :   FF;
  B2B   :   FF;
  B2C   :   FF;
  B2D   :   FF;
  B2E   :   FF;
  B2F   :   FF;
  B30   :   FF;
  B31   :   FF;
  B32   :   FF;
  B33   :   FF;
  B34   :   FF;
  B35   :   FF;
  B36   :   FF;
  B37   :   FF;
  B38   :   FF;
  B39   :   FF;
  B3A   :   FF;
  B3B   :   FF;
  B3C   :   FF;
  B3D   :   FF;
  B3E   :   FF;
  B3F   :   FF;
  B40   :   FF;
  B41   :   FF;
  B42   :   FF;
  B43   :   FF;
  B44   :   FF;
  B45   :   FF;
  B46   :   FF;
  B47   :   FF;
  B48   :   FF;
  B49   :   FF;
  B4A   :   FF;
  B4B   :   FF;
  B4C   :   FF;
  B4D   :   FF;
  B4E   :   FF;
  B4F   :   FF;
  B50   :   FF;
  B51   :   FF;
  B52   :   FF;
  B53   :   FF;
  B54   :   FF;
  B55   :   FF;
  B56   :   FF;
  B57   :   FF;
  B58   :   FF;
  B59   :   FF;
  B5A   :   FF;
  B5B   :   FF;
  B5C   :   FF;
  B5D   :   FF;
  B5E   :   FF;
  B5F   :   FF;
  B60   :   FF;
  B61   :   FF;
  B62   :   FF;
  B63   :   FF;
  B64   :   FF;
  B65   :   FF;
  B66   :   FF;
  B67   :   FF;
  B68   :   FF;
  B69   :   FF;
  B6A   :   FF;
  B6B   :   FF;
  B6C   :   FF;
  B6D   :   FF;
  B6E   :   FF;
  B6F   :   FF;
  B70   :   FF;
  B71   :   FF;
  B72   :   FF;
  B73   :   FF;
  B74   :   FF;
  B75   :   FF;
  B76   :   FF;
  B77   :   FF;
  B78   :   FF;
  B79   :   FF;
  B7A   :   FF;
  B7B   :   FF;
  B7C   :   FF;
  B7D   :   FF;
  B7E   :   FF;
  B7F   :   FF;
  B80   :   FF;
  B81   :   FF;
  B82   :   FF;
  B83   :   FF;
  B84   :   FF;
  B85   :   FF;
  B86   :   FF;
  B87   :   FF;
  B88   :   FF;
  B89   :   FF;
  B8A   :   FF;
  B8B   :   FF;
  B8C   :   FF;
  B8D   :   FF;
  B8E   :   FF;
  B8F   :   FF;
  B90   :   FF;
  B91   :   FF;
  B92   :   FF;
  B93   :   FF;
  B94   :   FF;
  B95   :   FF;
  B96   :   FF;
  B97   :   FF;
  B98   :   FF;
  B99   :   FF;
  B9A   :   FF;
  B9B   :   FF;
  B9C   :   FF;
  B9D   :   FF;
  B9E   :   FF;
  B9F   :   FF;
  BA0   :   FF;
  BA1   :   FF;
  BA2   :   FF;
  BA3   :   FF;
  BA4   :   FF;
  BA5   :   FF;
  BA6   :   FF;
  BA7   :   FF;
  BA8   :   FF;
  BA9   :   FF;
  BAA   :   FF;
  BAB   :   FF;
  BAC   :   FF;
  BAD   :   FF;
  BAE   :   FF;
  BAF   :   FF;
  BB0   :   FF;
  BB1   :   FF;
  BB2   :   FF;
  BB3   :   FF;
  BB4   :   FF;
  BB5   :   FF;
  BB6   :   FF;
  BB7   :   FF;
  BB8   :   FF;
  BB9   :   FF;
  BBA   :   FF;
  BBB   :   FF;
  BBC   :   FF;
  BBD   :   FF;
  BBE   :   FF;
  BBF   :   FF;
  BC0   :   FF;
  BC1   :   FF;
  BC2   :   FF;
  BC3   :   FF;
  BC4   :   FF;
  BC5   :   FF;
  BC6   :   FF;
  BC7   :   FF;
  BC8   :   FF;
  BC9   :   FF;
  BCA   :   FF;
  BCB   :   FF;
  BCC   :   FF;
  BCD   :   FF;
  BCE   :   FF;
  BCF   :   FF;
  BD0   :   FF;
  BD1   :   FF;
  BD2   :   FF;
  BD3   :   FF;
  BD4   :   FF;
  BD5   :   FF;
  BD6   :   FF;
  BD7   :   FF;
  BD8   :   FF;
  BD9   :   FF;
  BDA   :   FF;
  BDB   :   FF;
  BDC   :   FF;
  BDD   :   FF;
  BDE   :   FF;
  BDF   :   FF;
  BE0   :   FF;
  BE1   :   FF;
  BE2   :   FF;
  BE3   :   FF;
  BE4   :   FF;
  BE5   :   FF;
  BE6   :   FF;
  BE7   :   FF;
  BE8   :   FF;
  BE9   :   FF;
  BEA   :   FF;
  BEB   :   FF;
  BEC   :   FF;
  BED   :   FF;
  BEE   :   FF;
  BEF   :   FF;
  BF0   :   FF;
  BF1   :   FF;
  BF2   :   FF;
  BF3   :   FF;
  BF4   :   FF;
  BF5   :   FF;
  BF6   :   FF;
  BF7   :   FF;
  BF8   :   FF;
  BF9   :   FF;
  BFA   :   FF;
  BFB   :   FF;
  BFC   :   FF;
  BFD   :   FF;
  BFE   :   FF;
  BFF   :   FF;
  C00   :   FF;
  C01   :   FF;
  C02   :   FF;
  C03   :   FF;
  C04   :   FF;
  C05   :   FF;
  C06   :   FF;
  C07   :   FF;
  C08   :   FF;
  C09   :   FF;
  C0A   :   FF;
  C0B   :   FF;
  C0C   :   FF;
  C0D   :   FF;
  C0E   :   FF;
  C0F   :   FF;
  C10   :   FF;
  C11   :   FF;
  C12   :   FF;
  C13   :   FF;
  C14   :   FF;
  C15   :   FF;
  C16   :   FF;
  C17   :   FF;
  C18   :   FF;
  C19   :   FF;
  C1A   :   FF;
  C1B   :   FF;
  C1C   :   FF;
  C1D   :   FF;
  C1E   :   FF;
  C1F   :   FF;
  C20   :   FF;
  C21   :   FF;
  C22   :   FF;
  C23   :   FF;
  C24   :   FF;
  C25   :   FF;
  C26   :   FF;
  C27   :   FF;
  C28   :   FF;
  C29   :   FF;
  C2A   :   FF;
  C2B   :   FF;
  C2C   :   FF;
  C2D   :   FF;
  C2E   :   FF;
  C2F   :   FF;
  C30   :   FF;
  C31   :   FF;
  C32   :   FF;
  C33   :   FF;
  C34   :   FF;
  C35   :   FF;
  C36   :   FF;
  C37   :   FF;
  C38   :   FF;
  C39   :   FF;
  C3A   :   FF;
  C3B   :   FF;
  C3C   :   FF;
  C3D   :   FF;
  C3E   :   FF;
  C3F   :   FF;
  C40   :   FF;
  C41   :   FF;
  C42   :   FF;
  C43   :   FF;
  C44   :   FF;
  C45   :   FF;
  C46   :   FF;
  C47   :   FF;
  C48   :   FF;
  C49   :   FF;
  C4A   :   FF;
  C4B   :   FF;
  C4C   :   FF;
  C4D   :   FF;
  C4E   :   FF;
  C4F   :   FF;
  C50   :   FF;
  C51   :   FF;
  C52   :   FF;
  C53   :   FF;
  C54   :   FF;
  C55   :   FF;
  C56   :   FF;
  C57   :   FF;
  C58   :   FF;
  C59   :   FF;
  C5A   :   FF;
  C5B   :   FF;
  C5C   :   FF;
  C5D   :   FF;
  C5E   :   FF;
  C5F   :   FF;
  C60   :   FF;
  C61   :   FF;
  C62   :   FF;
  C63   :   FF;
  C64   :   FF;
  C65   :   FF;
  C66   :   FF;
  C67   :   FF;
  C68   :   FF;
  C69   :   FF;
  C6A   :   FF;
  C6B   :   FF;
  C6C   :   FF;
  C6D   :   FF;
  C6E   :   FF;
  C6F   :   FF;
  C70   :   FF;
  C71   :   FF;
  C72   :   FF;
  C73   :   FF;
  C74   :   FF;
  C75   :   FF;
  C76   :   FF;
  C77   :   FF;
  C78   :   FF;
  C79   :   FF;
  C7A   :   FF;
  C7B   :   FF;
  C7C   :   FF;
  C7D   :   FF;
  C7E   :   FF;
  C7F   :   FF;
  C80   :   FF;
  C81   :   FF;
  C82   :   FF;
  C83   :   FF;
  C84   :   FF;
  C85   :   FF;
  C86   :   FF;
  C87   :   FF;
  C88   :   FF;
  C89   :   FF;
  C8A   :   FF;
  C8B   :   FF;
  C8C   :   FF;
  C8D   :   FF;
  C8E   :   FF;
  C8F   :   FF;
  C90   :   FF;
  C91   :   FF;
  C92   :   FF;
  C93   :   FF;
  C94   :   FF;
  C95   :   FF;
  C96   :   FF;
  C97   :   FF;
  C98   :   FF;
  C99   :   FF;
  C9A   :   FF;
  C9B   :   FF;
  C9C   :   FF;
  C9D   :   FF;
  C9E   :   FF;
  C9F   :   FF;
  CA0   :   FF;
  CA1   :   FF;
  CA2   :   FF;
  CA3   :   FF;
  CA4   :   FF;
  CA5   :   FF;
  CA6   :   FF;
  CA7   :   FF;
  CA8   :   FF;
  CA9   :   FF;
  CAA   :   FF;
  CAB   :   FF;
  CAC   :   FF;
  CAD   :   FF;
  CAE   :   FF;
  CAF   :   FF;
  CB0   :   FF;
  CB1   :   FF;
  CB2   :   FF;
  CB3   :   FF;
  CB4   :   FF;
  CB5   :   FF;
  CB6   :   FF;
  CB7   :   FF;
  CB8   :   FF;
  CB9   :   FF;
  CBA   :   FF;
  CBB   :   FF;
  CBC   :   FF;
  CBD   :   FF;
  CBE   :   FF;
  CBF   :   FF;
  CC0   :   FF;
  CC1   :   FF;
  CC2   :   FF;
  CC3   :   FF;
  CC4   :   FF;
  CC5   :   FF;
  CC6   :   FF;
  CC7   :   FF;
  CC8   :   FF;
  CC9   :   FF;
  CCA   :   FF;
  CCB   :   FF;
  CCC   :   FF;
  CCD   :   FF;
  CCE   :   FF;
  CCF   :   FF;
  CD0   :   FF;
  CD1   :   FF;
  CD2   :   FF;
  CD3   :   FF;
  CD4   :   FF;
  CD5   :   FF;
  CD6   :   FF;
  CD7   :   FF;
  CD8   :   FF;
  CD9   :   FF;
  CDA   :   FF;
  CDB   :   FF;
  CDC   :   FF;
  CDD   :   FF;
  CDE   :   FF;
  CDF   :   FF;
  CE0   :   FF;
  CE1   :   FF;
  CE2   :   FF;
  CE3   :   FF;
  CE4   :   FF;
  CE5   :   FF;
  CE6   :   FF;
  CE7   :   FF;
  CE8   :   FF;
  CE9   :   FF;
  CEA   :   FF;
  CEB   :   FF;
  CEC   :   FF;
  CED   :   FF;
  CEE   :   FF;
  CEF   :   FF;
  CF0   :   FF;
  CF1   :   FF;
  CF2   :   FF;
  CF3   :   FF;
  CF4   :   FF;
  CF5   :   FF;
  CF6   :   FF;
  CF7   :   FF;
  CF8   :   FF;
  CF9   :   FF;
  CFA   :   FF;
  CFB   :   FF;
  CFC   :   FF;
  CFD   :   FF;
  CFE   :   FF;
  CFF   :   FF;
  D00   :   FF;
  D01   :   FF;
  D02   :   FF;
  D03   :   FF;
  D04   :   FF;
  D05   :   FF;
  D06   :   FF;
  D07   :   FF;
  D08   :   FF;
  D09   :   FF;
  D0A   :   FF;
  D0B   :   FF;
  D0C   :   FF;
  D0D   :   FF;
  D0E   :   FF;
  D0F   :   FF;
  D10   :   FF;
  D11   :   FF;
  D12   :   FF;
  D13   :   FF;
  D14   :   FF;
  D15   :   FF;
  D16   :   FF;
  D17   :   FF;
  D18   :   FF;
  D19   :   FF;
  D1A   :   FF;
  D1B   :   FF;
  D1C   :   FF;
  D1D   :   FF;
  D1E   :   FF;
  D1F   :   FF;
  D20   :   FF;
  D21   :   FF;
  D22   :   FF;
  D23   :   FF;
  D24   :   FF;
  D25   :   FF;
  D26   :   FF;
  D27   :   FF;
  D28   :   FF;
  D29   :   FF;
  D2A   :   FF;
  D2B   :   FF;
  D2C   :   FF;
  D2D   :   FF;
  D2E   :   FF;
  D2F   :   FF;
  D30   :   FF;
  D31   :   FF;
  D32   :   FF;
  D33   :   FF;
  D34   :   FF;
  D35   :   FF;
  D36   :   FF;
  D37   :   FF;
  D38   :   FF;
  D39   :   FF;
  D3A   :   FF;
  D3B   :   FF;
  D3C   :   FF;
  D3D   :   FF;
  D3E   :   FF;
  D3F   :   FF;
  D40   :   FF;
  D41   :   FF;
  D42   :   FF;
  D43   :   FF;
  D44   :   FF;
  D45   :   FF;
  D46   :   FF;
  D47   :   FF;
  D48   :   FF;
  D49   :   FF;
  D4A   :   FF;
  D4B   :   FF;
  D4C   :   FF;
  D4D   :   FF;
  D4E   :   FF;
  D4F   :   FF;
  D50   :   FF;
  D51   :   FF;
  D52   :   FF;
  D53   :   FF;
  D54   :   FF;
  D55   :   FF;
  D56   :   FF;
  D57   :   FF;
  D58   :   FF;
  D59   :   FF;
  D5A   :   FF;
  D5B   :   FF;
  D5C   :   FF;
  D5D   :   FF;
  D5E   :   FF;
  D5F   :   FF;
  D60   :   FF;
  D61   :   FF;
  D62   :   FF;
  D63   :   FF;
  D64   :   FF;
  D65   :   FF;
  D66   :   FF;
  D67   :   FF;
  D68   :   FF;
  D69   :   FF;
  D6A   :   FF;
  D6B   :   FF;
  D6C   :   FF;
  D6D   :   FF;
  D6E   :   FF;
  D6F   :   FF;
  D70   :   FF;
  D71   :   FF;
  D72   :   FF;
  D73   :   FF;
  D74   :   FF;
  D75   :   FF;
  D76   :   FF;
  D77   :   FF;
  D78   :   FF;
  D79   :   FF;
  D7A   :   FF;
  D7B   :   FF;
  D7C   :   FF;
  D7D   :   FF;
  D7E   :   FF;
  D7F   :   FF;
  D80   :   FF;
  D81   :   FF;
  D82   :   FF;
  D83   :   FF;
  D84   :   FF;
  D85   :   FF;
  D86   :   FF;
  D87   :   FF;
  D88   :   FF;
  D89   :   FF;
  D8A   :   FF;
  D8B   :   FF;
  D8C   :   FF;
  D8D   :   FF;
  D8E   :   FF;
  D8F   :   FF;
  D90   :   FF;
  D91   :   FF;
  D92   :   FF;
  D93   :   FF;
  D94   :   FF;
  D95   :   FF;
  D96   :   FF;
  D97   :   FF;
  D98   :   FF;
  D99   :   FF;
  D9A   :   FF;
  D9B   :   FF;
  D9C   :   FF;
  D9D   :   FF;
  D9E   :   FF;
  D9F   :   FF;
  DA0   :   FF;
  DA1   :   FF;
  DA2   :   FF;
  DA3   :   FF;
  DA4   :   FF;
  DA5   :   FF;
  DA6   :   FF;
  DA7   :   FF;
  DA8   :   FF;
  DA9   :   FF;
  DAA   :   FF;
  DAB   :   FF;
  DAC   :   FF;
  DAD   :   FF;
  DAE   :   FF;
  DAF   :   FF;
  DB0   :   FF;
  DB1   :   FF;
  DB2   :   FF;
  DB3   :   FF;
  DB4   :   FF;
  DB5   :   FF;
  DB6   :   FF;
  DB7   :   FF;
  DB8   :   FF;
  DB9   :   FF;
  DBA   :   FF;
  DBB   :   FF;
  DBC   :   FF;
  DBD   :   FF;
  DBE   :   FF;
  DBF   :   FF;
  DC0   :   FF;
  DC1   :   FF;
  DC2   :   FF;
  DC3   :   FF;
  DC4   :   FF;
  DC5   :   FF;
  DC6   :   FF;
  DC7   :   FF;
  DC8   :   FF;
  DC9   :   FF;
  DCA   :   FF;
  DCB   :   FF;
  DCC   :   FF;
  DCD   :   FF;
  DCE   :   FF;
  DCF   :   FF;
  DD0   :   FF;
  DD1   :   FF;
  DD2   :   FF;
  DD3   :   FF;
  DD4   :   FF;
  DD5   :   FF;
  DD6   :   FF;
  DD7   :   FF;
  DD8   :   FF;
  DD9   :   FF;
  DDA   :   FF;
  DDB   :   FF;
  DDC   :   FF;
  DDD   :   FF;
  DDE   :   FF;
  DDF   :   FF;
  DE0   :   FF;
  DE1   :   FF;
  DE2   :   FF;
  DE3   :   FF;
  DE4   :   FF;
  DE5   :   FF;
  DE6   :   FF;
  DE7   :   FF;
  DE8   :   FF;
  DE9   :   FF;
  DEA   :   FF;
  DEB   :   FF;
  DEC   :   FF;
  DED   :   FF;
  DEE   :   FF;
  DEF   :   FF;
  DF0   :   FF;
  DF1   :   FF;
  DF2   :   FF;
  DF3   :   FF;
  DF4   :   FF;
  DF5   :   FF;
  DF6   :   FF;
  DF7   :   FF;
  DF8   :   FF;
  DF9   :   FF;
  DFA   :   FF;
  DFB   :   FF;
  DFC   :   FF;
  DFD   :   FF;
  DFE   :   FF;
  DFF   :   FF;
  E00   :   FF;
  E01   :   FF;
  E02   :   FF;
  E03   :   FF;
  E04   :   FF;
  E05   :   FF;
  E06   :   FF;
  E07   :   FF;
  E08   :   FF;
  E09   :   FF;
  E0A   :   FF;
  E0B   :   FF;
  E0C   :   FF;
  E0D   :   FF;
  E0E   :   FF;
  E0F   :   FF;
  E10   :   FF;
  E11   :   FF;
  E12   :   FF;
  E13   :   FF;
  E14   :   FF;
  E15   :   FF;
  E16   :   FF;
  E17   :   FF;
  E18   :   FF;
  E19   :   FF;
  E1A   :   FF;
  E1B   :   FF;
  E1C   :   FF;
  E1D   :   FF;
  E1E   :   FF;
  E1F   :   FF;
  E20   :   FF;
  E21   :   FF;
  E22   :   FF;
  E23   :   FF;
  E24   :   FF;
  E25   :   FF;
  E26   :   FF;
  E27   :   FF;
  E28   :   FF;
  E29   :   FF;
  E2A   :   FF;
  E2B   :   FF;
  E2C   :   FF;
  E2D   :   FF;
  E2E   :   FF;
  E2F   :   FF;
  E30   :   FF;
  E31   :   FF;
  E32   :   FF;
  E33   :   FF;
  E34   :   FF;
  E35   :   FF;
  E36   :   FF;
  E37   :   FF;
  E38   :   FF;
  E39   :   FF;
  E3A   :   FF;
  E3B   :   FF;
  E3C   :   FF;
  E3D   :   FF;
  E3E   :   FF;
  E3F   :   FF;
  E40   :   FF;
  E41   :   FF;
  E42   :   FF;
  E43   :   FF;
  E44   :   FF;
  E45   :   FF;
  E46   :   FF;
  E47   :   FF;
  E48   :   FF;
  E49   :   FF;
  E4A   :   FF;
  E4B   :   FF;
  E4C   :   FF;
  E4D   :   FF;
  E4E   :   FF;
  E4F   :   FF;
  E50   :   FF;
  E51   :   FF;
  E52   :   FF;
  E53   :   FF;
  E54   :   FF;
  E55   :   FF;
  E56   :   FF;
  E57   :   FF;
  E58   :   FF;
  E59   :   FF;
  E5A   :   FF;
  E5B   :   FF;
  E5C   :   FF;
  E5D   :   FF;
  E5E   :   FF;
  E5F   :   FF;
  E60   :   FF;
  E61   :   FF;
  E62   :   FF;
  E63   :   FF;
  E64   :   FF;
  E65   :   FF;
  E66   :   FF;
  E67   :   FF;
  E68   :   FF;
  E69   :   FF;
  E6A   :   FF;
  E6B   :   FF;
  E6C   :   FF;
  E6D   :   FF;
  E6E   :   FF;
  E6F   :   FF;
  E70   :   FF;
  E71   :   FF;
  E72   :   FF;
  E73   :   FF;
  E74   :   FF;
  E75   :   FF;
  E76   :   FF;
  E77   :   FF;
  E78   :   FF;
  E79   :   FF;
  E7A   :   FF;
  E7B   :   FF;
  E7C   :   FF;
  E7D   :   FF;
  E7E   :   FF;
  E7F   :   FF;
  E80   :   FF;
  E81   :   FF;
  E82   :   FF;
  E83   :   FF;
  E84   :   FF;
  E85   :   FF;
  E86   :   FF;
  E87   :   FF;
  E88   :   FF;
  E89   :   FF;
  E8A   :   FF;
  E8B   :   FF;
  E8C   :   FF;
  E8D   :   FF;
  E8E   :   FF;
  E8F   :   FF;
  E90   :   FF;
  E91   :   FF;
  E92   :   FF;
  E93   :   FF;
  E94   :   FF;
  E95   :   FF;
  E96   :   FF;
  E97   :   FF;
  E98   :   FF;
  E99   :   FF;
  E9A   :   FF;
  E9B   :   FF;
  E9C   :   FF;
  E9D   :   FF;
  E9E   :   FF;
  E9F   :   FF;
  EA0   :   FF;
  EA1   :   FF;
  EA2   :   FF;
  EA3   :   FF;
  EA4   :   FF;
  EA5   :   FF;
  EA6   :   FF;
  EA7   :   FF;
  EA8   :   FF;
  EA9   :   FF;
  EAA   :   FF;
  EAB   :   FF;
  EAC   :   FF;
  EAD   :   FF;
  EAE   :   FF;
  EAF   :   FF;
  EB0   :   FF;
  EB1   :   FF;
  EB2   :   FF;
  EB3   :   FF;
  EB4   :   FF;
  EB5   :   FF;
  EB6   :   FF;
  EB7   :   FF;
  EB8   :   FF;
  EB9   :   FF;
  EBA   :   FF;
  EBB   :   FF;
  EBC   :   FF;
  EBD   :   FF;
  EBE   :   FF;
  EBF   :   FF;
  EC0   :   FF;
  EC1   :   FF;
  EC2   :   FF;
  EC3   :   FF;
  EC4   :   FF;
  EC5   :   FF;
  EC6   :   FF;
  EC7   :   FF;
  EC8   :   FF;
  EC9   :   FF;
  ECA   :   FF;
  ECB   :   FF;
  ECC   :   FF;
  ECD   :   FF;
  ECE   :   FF;
  ECF   :   FF;
  ED0   :   FF;
  ED1   :   FF;
  ED2   :   FF;
  ED3   :   FF;
  ED4   :   FF;
  ED5   :   FF;
  ED6   :   FF;
  ED7   :   FF;
  ED8   :   FF;
  ED9   :   FF;
  EDA   :   FF;
  EDB   :   FF;
  EDC   :   FF;
  EDD   :   FF;
  EDE   :   FF;
  EDF   :   FF;
  EE0   :   FF;
  EE1   :   FF;
  EE2   :   FF;
  EE3   :   FF;
  EE4   :   FF;
  EE5   :   FF;
  EE6   :   FF;
  EE7   :   FF;
  EE8   :   FF;
  EE9   :   FF;
  EEA   :   FF;
  EEB   :   FF;
  EEC   :   FF;
  EED   :   FF;
  EEE   :   FF;
  EEF   :   FF;
  EF0   :   FF;
  EF1   :   FF;
  EF2   :   FF;
  EF3   :   FF;
  EF4   :   FF;
  EF5   :   FF;
  EF6   :   FF;
  EF7   :   FF;
  EF8   :   FF;
  EF9   :   FF;
  EFA   :   FF;
  EFB   :   FF;
  EFC   :   FF;
  EFD   :   FF;
  EFE   :   FF;
  EFF   :   FF;
  F00   :   FF;
  F01   :   FF;
  F02   :   FF;
  F03   :   FF;
  F04   :   FF;
  F05   :   FF;
  F06   :   FF;
  F07   :   FF;
  F08   :   FF;
  F09   :   FF;
  F0A   :   FF;
  F0B   :   FF;
  F0C   :   FF;
  F0D   :   FF;
  F0E   :   FF;
  F0F   :   FF;
  F10   :   FF;
  F11   :   FF;
  F12   :   FF;
  F13   :   FF;
  F14   :   FF;
  F15   :   FF;
  F16   :   FF;
  F17   :   FF;
  F18   :   FF;
  F19   :   FF;
  F1A   :   FF;
  F1B   :   FF;
  F1C   :   FF;
  F1D   :   FF;
  F1E   :   FF;
  F1F   :   FF;
  F20   :   FF;
  F21   :   FF;
  F22   :   FF;
  F23   :   FF;
  F24   :   FF;
  F25   :   FF;
  F26   :   FF;
  F27   :   FF;
  F28   :   FF;
  F29   :   FF;
  F2A   :   FF;
  F2B   :   FF;
  F2C   :   FF;
  F2D   :   FF;
  F2E   :   FF;
  F2F   :   FF;
  F30   :   FF;
  F31   :   FF;
  F32   :   FF;
  F33   :   FF;
  F34   :   FF;
  F35   :   FF;
  F36   :   FF;
  F37   :   FF;
  F38   :   FF;
  F39   :   FF;
  F3A   :   FF;
  F3B   :   FF;
  F3C   :   FF;
  F3D   :   FF;
  F3E   :   FF;
  F3F   :   FF;
  F40   :   FF;
  F41   :   FF;
  F42   :   FF;
  F43   :   FF;
  F44   :   FF;
  F45   :   FF;
  F46   :   FF;
  F47   :   FF;
  F48   :   FF;
  F49   :   FF;
  F4A   :   FF;
  F4B   :   FF;
  F4C   :   FF;
  F4D   :   FF;
  F4E   :   FF;
  F4F   :   FF;
  F50   :   FF;
  F51   :   FF;
  F52   :   FF;
  F53   :   FF;
  F54   :   FF;
  F55   :   FF;
  F56   :   FF;
  F57   :   FF;
  F58   :   FF;
  F59   :   FF;
  F5A   :   FF;
  F5B   :   FF;
  F5C   :   FF;
  F5D   :   FF;
  F5E   :   FF;
  F5F   :   FF;
  F60   :   FF;
  F61   :   FF;
  F62   :   FF;
  F63   :   FF;
  F64   :   FF;
  F65   :   FF;
  F66   :   FF;
  F67   :   FF;
  F68   :   FF;
  F69   :   FF;
  F6A   :   FF;
  F6B   :   FF;
  F6C   :   FF;
  F6D   :   FF;
  F6E   :   FF;
  F6F   :   FF;
  F70   :   FF;
  F71   :   FF;
  F72   :   FF;
  F73   :   FF;
  F74   :   FF;
  F75   :   FF;
  F76   :   FF;
  F77   :   FF;
  F78   :   FF;
  F79   :   FF;
  F7A   :   FF;
  F7B   :   FF;
  F7C   :   FF;
  F7D   :   FF;
  F7E   :   FF;
  F7F   :   FF;
  F80   :   FF;
  F81   :   FF;
  F82   :   FF;
  F83   :   FF;
  F84   :   FF;
  F85   :   FF;
  F86   :   FF;
  F87   :   FF;
  F88   :   FF;
  F89   :   FF;
  F8A   :   FF;
  F8B   :   FF;
  F8C   :   FF;
  F8D   :   FF;
  F8E   :   FF;
  F8F   :   FF;
  F90   :   FF;
  F91   :   FF;
  F92   :   FF;
  F93   :   FF;
  F94   :   FF;
  F95   :   FF;
  F96   :   FF;
  F97   :   FF;
  F98   :   FF;
  F99   :   FF;
  F9A   :   FF;
  F9B   :   FF;
  F9C   :   FF;
  F9D   :   FF;
  F9E   :   FF;
  F9F   :   FF;
  FA0   :   FF;
  FA1   :   FF;
  FA2   :   FF;
  FA3   :   FF;
  FA4   :   FF;
  FA5   :   FF;
  FA6   :   FF;
  FA7   :   FF;
  FA8   :   FF;
  FA9   :   FF;
  FAA   :   FF;
  FAB   :   FF;
  FAC   :   FF;
  FAD   :   FF;
  FAE   :   FF;
  FAF   :   FF;
  FB0   :   FF;
  FB1   :   FF;
  FB2   :   FF;
  FB3   :   FF;
  FB4   :   FF;
  FB5   :   FF;
  FB6   :   FF;
  FB7   :   FF;
  FB8   :   FF;
  FB9   :   FF;
  FBA   :   FF;
  FBB   :   FF;
  FBC   :   FF;
  FBD   :   FF;
  FBE   :   FF;
  FBF   :   FF;
  FC0   :   FF;
  FC1   :   FF;
  FC2   :   FF;
  FC3   :   FF;
  FC4   :   FF;
  FC5   :   FF;
  FC6   :   FF;
  FC7   :   FF;
  FC8   :   FF;
  FC9   :   FF;
  FCA   :   FF;
  FCB   :   FF;
  FCC   :   FF;
  FCD   :   FF;
  FCE   :   FF;
  FCF   :   FF;
  FD0   :   FF;
  FD1   :   FF;
  FD2   :   FF;
  FD3   :   FF;
  FD4   :   FF;
  FD5   :   FF;
  FD6   :   FF;
  FD7   :   FF;
  FD8   :   FF;
  FD9   :   FF;
  FDA   :   FF;
  FDB   :   FF;
  FDC   :   FF;
  FDD   :   FF;
  FDE   :   FF;
  FDF   :   FF;
  FE0   :   FF;
  FE1   :   FF;
  FE2   :   FF;
  FE3   :   FF;
  FE4   :   FF;
  FE5   :   FF;
  FE6   :   FF;
  FE7   :   FF;
  FE8   :   FF;
  FE9   :   FF;
  FEA   :   FF;
  FEB   :   FF;
  FEC   :   FF;
  FED   :   FF;
  FEE   :   FF;
  FEF   :   FF;
  FF0   :   FF;
  FF1   :   FF;
  FF2   :   FF;
  FF3   :   FF;
  FF4   :   FF;
  FF5   :   FF;
  FF6   :   FF;
  FF7   :   FF;
  FF8   :   FF;
  FF9   :   FF;
  FFA   :   FF;
  FFB   :   FF;
  FFC   :   FF;
  FFD   :   FF;
  FFE   :   FF;
  FFF   :   FF;
 1000   :   FF;
 1001   :   FF;
 1002   :   FF;
 1003   :   FF;
 1004   :   FF;
 1005   :   FF;
 1006   :   FF;
 1007   :   FF;
 1008   :   FF;
 1009   :   FF;
 100A   :   FF;
 100B   :   FF;
 100C   :   FF;
 100D   :   FF;
 100E   :   FF;
 100F   :   FF;
 1010   :   FF;
 1011   :   FF;
 1012   :   FF;
 1013   :   FF;
 1014   :   FF;
 1015   :   FF;
 1016   :   FF;
 1017   :   FF;
 1018   :   FF;
 1019   :   FF;
 101A   :   FF;
 101B   :   FF;
 101C   :   FF;
 101D   :   FF;
 101E   :   FF;
 101F   :   FF;
 1020   :   FF;
 1021   :   FF;
 1022   :   FF;
 1023   :   FF;
 1024   :   FF;
 1025   :   FF;
 1026   :   FF;
 1027   :   FF;
 1028   :   FF;
 1029   :   FF;
 102A   :   FF;
 102B   :   FF;
 102C   :   FF;
 102D   :   FF;
 102E   :   FF;
 102F   :   FF;
 1030   :   FF;
 1031   :   FF;
 1032   :   FF;
 1033   :   FF;
 1034   :   FF;
 1035   :   FF;
 1036   :   FF;
 1037   :   FF;
 1038   :   FF;
 1039   :   FF;
 103A   :   FF;
 103B   :   FF;
 103C   :   FF;
 103D   :   FF;
 103E   :   FF;
 103F   :   FF;
 1040   :   FF;
 1041   :   FF;
 1042   :   FF;
 1043   :   FF;
 1044   :   FF;
 1045   :   FF;
 1046   :   FF;
 1047   :   FF;
 1048   :   FF;
 1049   :   FF;
 104A   :   FF;
 104B   :   FF;
 104C   :   FF;
 104D   :   FF;
 104E   :   FF;
 104F   :   FF;
 1050   :   FF;
 1051   :   FF;
 1052   :   FF;
 1053   :   FF;
 1054   :   FF;
 1055   :   FF;
 1056   :   FF;
 1057   :   FF;
 1058   :   FF;
 1059   :   FF;
 105A   :   FF;
 105B   :   FF;
 105C   :   FF;
 105D   :   FF;
 105E   :   FF;
 105F   :   FF;
 1060   :   FF;
 1061   :   FF;
 1062   :   FF;
 1063   :   FF;
 1064   :   FF;
 1065   :   FF;
 1066   :   FF;
 1067   :   FF;
 1068   :   FF;
 1069   :   FF;
 106A   :   FF;
 106B   :   FF;
 106C   :   FF;
 106D   :   FF;
 106E   :   FF;
 106F   :   FF;
 1070   :   FF;
 1071   :   FF;
 1072   :   FF;
 1073   :   FF;
 1074   :   FF;
 1075   :   FF;
 1076   :   FF;
 1077   :   FF;
 1078   :   FF;
 1079   :   FF;
 107A   :   FF;
 107B   :   FF;
 107C   :   FF;
 107D   :   FF;
 107E   :   FF;
 107F   :   FF;
 1080   :   FF;
 1081   :   FF;
 1082   :   FF;
 1083   :   FF;
 1084   :   FF;
 1085   :   FF;
 1086   :   FF;
 1087   :   FF;
 1088   :   FF;
 1089   :   FF;
 108A   :   FF;
 108B   :   FF;
 108C   :   FF;
 108D   :   FF;
 108E   :   FF;
 108F   :   FF;
 1090   :   FF;
 1091   :   FF;
 1092   :   FF;
 1093   :   FF;
 1094   :   FF;
 1095   :   FF;
 1096   :   FF;
 1097   :   FF;
 1098   :   FF;
 1099   :   FF;
 109A   :   FF;
 109B   :   FF;
 109C   :   FF;
 109D   :   FF;
 109E   :   FF;
 109F   :   FF;
 10A0   :   FF;
 10A1   :   FF;
 10A2   :   FF;
 10A3   :   FF;
 10A4   :   FF;
 10A5   :   FF;
 10A6   :   FF;
 10A7   :   FF;
 10A8   :   FF;
 10A9   :   FF;
 10AA   :   FF;
 10AB   :   FF;
 10AC   :   FF;
 10AD   :   FF;
 10AE   :   FF;
 10AF   :   FF;
 10B0   :   FF;
 10B1   :   FF;
 10B2   :   FF;
 10B3   :   FF;
 10B4   :   FF;
 10B5   :   FF;
 10B6   :   FF;
 10B7   :   FF;
 10B8   :   FF;
 10B9   :   FF;
 10BA   :   FF;
 10BB   :   FF;
 10BC   :   FF;
 10BD   :   FF;
 10BE   :   FF;
 10BF   :   FF;
 10C0   :   FF;
 10C1   :   FF;
 10C2   :   FF;
 10C3   :   FF;
 10C4   :   FF;
 10C5   :   FF;
 10C6   :   FF;
 10C7   :   FF;
 10C8   :   FF;
 10C9   :   FF;
 10CA   :   FF;
 10CB   :   FF;
 10CC   :   FF;
 10CD   :   FF;
 10CE   :   FF;
 10CF   :   FF;
 10D0   :   FF;
 10D1   :   FF;
 10D2   :   FF;
 10D3   :   FF;
 10D4   :   FF;
 10D5   :   FF;
 10D6   :   FF;
 10D7   :   FF;
 10D8   :   FF;
 10D9   :   FF;
 10DA   :   FF;
 10DB   :   FF;
 10DC   :   FF;
 10DD   :   FF;
 10DE   :   FF;
 10DF   :   FF;
 10E0   :   FF;
 10E1   :   FF;
 10E2   :   FF;
 10E3   :   FF;
 10E4   :   FF;
 10E5   :   FF;
 10E6   :   FF;
 10E7   :   FF;
 10E8   :   FF;
 10E9   :   FF;
 10EA   :   FF;
 10EB   :   FF;
 10EC   :   FF;
 10ED   :   FF;
 10EE   :   FF;
 10EF   :   FF;
 10F0   :   FF;
 10F1   :   FF;
 10F2   :   FF;
 10F3   :   FF;
 10F4   :   FF;
 10F5   :   FF;
 10F6   :   FF;
 10F7   :   FF;
 10F8   :   FF;
 10F9   :   FF;
 10FA   :   FF;
 10FB   :   FF;
 10FC   :   FF;
 10FD   :   FF;
 10FE   :   FF;
 10FF   :   FF;
 1100   :   FF;
 1101   :   FF;
 1102   :   FF;
 1103   :   FF;
 1104   :   FF;
 1105   :   FF;
 1106   :   FF;
 1107   :   FF;
 1108   :   FF;
 1109   :   FF;
 110A   :   FF;
 110B   :   FF;
 110C   :   FF;
 110D   :   FF;
 110E   :   FF;
 110F   :   FF;
 1110   :   FF;
 1111   :   FF;
 1112   :   FF;
 1113   :   FF;
 1114   :   FF;
 1115   :   FF;
 1116   :   FF;
 1117   :   FF;
 1118   :   FF;
 1119   :   FF;
 111A   :   FF;
 111B   :   FF;
 111C   :   FF;
 111D   :   FF;
 111E   :   FF;
 111F   :   FF;
 1120   :   FF;
 1121   :   FF;
 1122   :   FF;
 1123   :   FF;
 1124   :   FF;
 1125   :   FF;
 1126   :   FF;
 1127   :   FF;
 1128   :   FF;
 1129   :   FF;
 112A   :   FF;
 112B   :   FF;
 112C   :   FF;
 112D   :   FF;
 112E   :   FF;
 112F   :   FF;
 1130   :   FF;
 1131   :   FF;
 1132   :   FF;
 1133   :   FF;
 1134   :   FF;
 1135   :   FF;
 1136   :   FF;
 1137   :   FF;
 1138   :   FF;
 1139   :   FF;
 113A   :   FF;
 113B   :   FF;
 113C   :   FF;
 113D   :   FF;
 113E   :   FF;
 113F   :   FF;
 1140   :   FF;
 1141   :   FF;
 1142   :   FF;
 1143   :   FF;
 1144   :   FF;
 1145   :   FF;
 1146   :   FF;
 1147   :   FF;
 1148   :   FF;
 1149   :   FF;
 114A   :   FF;
 114B   :   FF;
 114C   :   FF;
 114D   :   FF;
 114E   :   FF;
 114F   :   FF;
 1150   :   FF;
 1151   :   FF;
 1152   :   FF;
 1153   :   FF;
 1154   :   FF;
 1155   :   FF;
 1156   :   FF;
 1157   :   FF;
 1158   :   FF;
 1159   :   FF;
 115A   :   FF;
 115B   :   FF;
 115C   :   FF;
 115D   :   FF;
 115E   :   FF;
 115F   :   FF;
 1160   :   FF;
 1161   :   FF;
 1162   :   FF;
 1163   :   FF;
 1164   :   FF;
 1165   :   FF;
 1166   :   FF;
 1167   :   FF;
 1168   :   FF;
 1169   :   FF;
 116A   :   FF;
 116B   :   FF;
 116C   :   FF;
 116D   :   FF;
 116E   :   FF;
 116F   :   FF;
 1170   :   FF;
 1171   :   FF;
 1172   :   FF;
 1173   :   FF;
 1174   :   FF;
 1175   :   FF;
 1176   :   FF;
 1177   :   FF;
 1178   :   FF;
 1179   :   FF;
 117A   :   FF;
 117B   :   FF;
 117C   :   FF;
 117D   :   FF;
 117E   :   FF;
 117F   :   FF;
 1180   :   FF;
 1181   :   FF;
 1182   :   FF;
 1183   :   FF;
 1184   :   FF;
 1185   :   FF;
 1186   :   FF;
 1187   :   FF;
 1188   :   FF;
 1189   :   FF;
 118A   :   FF;
 118B   :   FF;
 118C   :   FF;
 118D   :   FF;
 118E   :   FF;
 118F   :   FF;
 1190   :   FF;
 1191   :   FF;
 1192   :   FF;
 1193   :   FF;
 1194   :   FF;
 1195   :   FF;
 1196   :   FF;
 1197   :   FF;
 1198   :   FF;
 1199   :   FF;
 119A   :   FF;
 119B   :   FF;
 119C   :   FF;
 119D   :   FF;
 119E   :   FF;
 119F   :   FF;
 11A0   :   FF;
 11A1   :   FF;
 11A2   :   FF;
 11A3   :   FF;
 11A4   :   FF;
 11A5   :   FF;
 11A6   :   FF;
 11A7   :   FF;
 11A8   :   FF;
 11A9   :   FF;
 11AA   :   FF;
 11AB   :   FF;
 11AC   :   FF;
 11AD   :   FF;
 11AE   :   FF;
 11AF   :   FF;
 11B0   :   FF;
 11B1   :   FF;
 11B2   :   FF;
 11B3   :   FF;
 11B4   :   FF;
 11B5   :   FF;
 11B6   :   FF;
 11B7   :   FF;
 11B8   :   FF;
 11B9   :   FF;
 11BA   :   FF;
 11BB   :   FF;
 11BC   :   FF;
 11BD   :   FF;
 11BE   :   FF;
 11BF   :   FF;
 11C0   :   FF;
 11C1   :   FF;
 11C2   :   FF;
 11C3   :   FF;
 11C4   :   FF;
 11C5   :   FF;
 11C6   :   FF;
 11C7   :   FF;
 11C8   :   FF;
 11C9   :   FF;
 11CA   :   FF;
 11CB   :   FF;
 11CC   :   FF;
 11CD   :   FF;
 11CE   :   FF;
 11CF   :   FF;
 11D0   :   FF;
 11D1   :   FF;
 11D2   :   FF;
 11D3   :   FF;
 11D4   :   FF;
 11D5   :   FF;
 11D6   :   FF;
 11D7   :   FF;
 11D8   :   FF;
 11D9   :   FF;
 11DA   :   FF;
 11DB   :   FF;
 11DC   :   FF;
 11DD   :   FF;
 11DE   :   FF;
 11DF   :   FF;
 11E0   :   FF;
 11E1   :   FF;
 11E2   :   FF;
 11E3   :   FF;
 11E4   :   FF;
 11E5   :   FF;
 11E6   :   FF;
 11E7   :   FF;
 11E8   :   FF;
 11E9   :   FF;
 11EA   :   FF;
 11EB   :   FF;
 11EC   :   FF;
 11ED   :   FF;
 11EE   :   FF;
 11EF   :   FF;
 11F0   :   FF;
 11F1   :   FF;
 11F2   :   FF;
 11F3   :   FF;
 11F4   :   FF;
 11F5   :   FF;
 11F6   :   FF;
 11F7   :   FF;
 11F8   :   FF;
 11F9   :   FF;
 11FA   :   FF;
 11FB   :   FF;
 11FC   :   FF;
 11FD   :   FF;
 11FE   :   FF;
 11FF   :   FF;
 1200   :   FF;
 1201   :   FF;
 1202   :   FF;
 1203   :   FF;
 1204   :   FF;
 1205   :   FF;
 1206   :   FF;
 1207   :   FF;
 1208   :   FF;
 1209   :   FF;
 120A   :   FF;
 120B   :   FF;
 120C   :   FF;
 120D   :   FF;
 120E   :   FF;
 120F   :   FF;
 1210   :   FF;
 1211   :   FF;
 1212   :   FF;
 1213   :   FF;
 1214   :   FF;
 1215   :   FF;
 1216   :   FF;
 1217   :   FF;
 1218   :   FF;
 1219   :   FF;
 121A   :   FF;
 121B   :   FF;
 121C   :   FF;
 121D   :   FF;
 121E   :   FF;
 121F   :   FF;
 1220   :   FF;
 1221   :   FF;
 1222   :   FF;
 1223   :   FF;
 1224   :   FF;
 1225   :   FF;
 1226   :   FF;
 1227   :   FF;
 1228   :   FF;
 1229   :   FF;
 122A   :   FF;
 122B   :   FF;
 122C   :   FF;
 122D   :   FF;
 122E   :   FF;
 122F   :   FF;
 1230   :   FF;
 1231   :   FF;
 1232   :   FF;
 1233   :   FF;
 1234   :   FF;
 1235   :   FF;
 1236   :   FF;
 1237   :   FF;
 1238   :   FF;
 1239   :   FF;
 123A   :   FF;
 123B   :   FF;
 123C   :   FF;
 123D   :   FF;
 123E   :   FF;
 123F   :   FF;
 1240   :   FF;
 1241   :   FF;
 1242   :   FF;
 1243   :   FF;
 1244   :   FF;
 1245   :   FF;
 1246   :   FF;
 1247   :   FF;
 1248   :   FF;
 1249   :   FF;
 124A   :   FF;
 124B   :   FF;
 124C   :   FF;
 124D   :   FF;
 124E   :   FF;
 124F   :   FF;
 1250   :   FF;
 1251   :   FF;
 1252   :   FF;
 1253   :   FF;
 1254   :   FF;
 1255   :   FF;
 1256   :   FF;
 1257   :   FF;
 1258   :   FF;
 1259   :   FF;
 125A   :   FF;
 125B   :   FF;
 125C   :   FF;
 125D   :   FF;
 125E   :   FF;
 125F   :   FF;
 1260   :   FF;
 1261   :   FF;
 1262   :   FF;
 1263   :   FF;
 1264   :   FF;
 1265   :   FF;
 1266   :   FF;
 1267   :   FF;
 1268   :   FF;
 1269   :   FF;
 126A   :   FF;
 126B   :   FF;
 126C   :   FF;
 126D   :   FF;
 126E   :   FF;
 126F   :   FF;
 1270   :   FF;
 1271   :   FF;
 1272   :   FF;
 1273   :   FF;
 1274   :   FF;
 1275   :   FF;
 1276   :   FF;
 1277   :   FF;
 1278   :   FF;
 1279   :   FF;
 127A   :   FF;
 127B   :   FF;
 127C   :   FF;
 127D   :   FF;
 127E   :   FF;
 127F   :   FF;
 1280   :   FF;
 1281   :   FF;
 1282   :   FF;
 1283   :   FF;
 1284   :   FF;
 1285   :   FF;
 1286   :   FF;
 1287   :   FF;
 1288   :   FF;
 1289   :   FF;
 128A   :   FF;
 128B   :   FF;
 128C   :   FF;
 128D   :   FF;
 128E   :   FF;
 128F   :   FF;
 1290   :   FF;
 1291   :   FF;
 1292   :   FF;
 1293   :   FF;
 1294   :   FF;
 1295   :   FF;
 1296   :   FF;
 1297   :   FF;
 1298   :   FF;
 1299   :   FF;
 129A   :   FF;
 129B   :   FF;
 129C   :   FF;
 129D   :   FF;
 129E   :   FF;
 129F   :   FF;
 12A0   :   FF;
 12A1   :   FF;
 12A2   :   FF;
 12A3   :   FF;
 12A4   :   FF;
 12A5   :   FF;
 12A6   :   FF;
 12A7   :   FF;
 12A8   :   FF;
 12A9   :   FF;
 12AA   :   FF;
 12AB   :   FF;
 12AC   :   FF;
 12AD   :   FF;
 12AE   :   FF;
 12AF   :   FF;
 12B0   :   FF;
 12B1   :   FF;
 12B2   :   FF;
 12B3   :   FF;
 12B4   :   FF;
 12B5   :   FF;
 12B6   :   FF;
 12B7   :   FF;
 12B8   :   FF;
 12B9   :   FF;
 12BA   :   FF;
 12BB   :   FF;
 12BC   :   FF;
 12BD   :   FF;
 12BE   :   FF;
 12BF   :   FF;
 12C0   :   FF;
 12C1   :   FF;
 12C2   :   FF;
 12C3   :   FF;
 12C4   :   FF;
 12C5   :   FF;
 12C6   :   FF;
 12C7   :   FF;
 12C8   :   FF;
 12C9   :   FF;
 12CA   :   FF;
 12CB   :   FF;
 12CC   :   FF;
 12CD   :   FF;
 12CE   :   FF;
 12CF   :   FF;
 12D0   :   FF;
 12D1   :   FF;
 12D2   :   FF;
 12D3   :   FF;
 12D4   :   FF;
 12D5   :   FF;
 12D6   :   FF;
 12D7   :   FF;
 12D8   :   FF;
 12D9   :   FF;
 12DA   :   FF;
 12DB   :   FF;
 12DC   :   FF;
 12DD   :   FF;
 12DE   :   FF;
 12DF   :   FF;
 12E0   :   FF;
 12E1   :   FF;
 12E2   :   FF;
 12E3   :   FF;
 12E4   :   FF;
 12E5   :   FF;
 12E6   :   FF;
 12E7   :   FF;
 12E8   :   FF;
 12E9   :   FF;
 12EA   :   FF;
 12EB   :   FF;
 12EC   :   FF;
 12ED   :   FF;
 12EE   :   FF;
 12EF   :   FF;
 12F0   :   FF;
 12F1   :   FF;
 12F2   :   FF;
 12F3   :   FF;
 12F4   :   FF;
 12F5   :   FF;
 12F6   :   FF;
 12F7   :   FF;
 12F8   :   FF;
 12F9   :   FF;
 12FA   :   FF;
 12FB   :   FF;
 12FC   :   FF;
 12FD   :   FF;
 12FE   :   FF;
 12FF   :   FF;
 1300   :   FF;
 1301   :   FF;
 1302   :   FF;
 1303   :   FF;
 1304   :   FF;
 1305   :   FF;
 1306   :   FF;
 1307   :   FF;
 1308   :   FF;
 1309   :   FF;
 130A   :   FF;
 130B   :   FF;
 130C   :   FF;
 130D   :   FF;
 130E   :   FF;
 130F   :   FF;
 1310   :   FF;
 1311   :   FF;
 1312   :   FF;
 1313   :   FF;
 1314   :   FF;
 1315   :   FF;
 1316   :   FF;
 1317   :   FF;
 1318   :   FF;
 1319   :   FF;
 131A   :   FF;
 131B   :   FF;
 131C   :   FF;
 131D   :   FF;
 131E   :   FF;
 131F   :   FF;
 1320   :   FF;
 1321   :   FF;
 1322   :   FF;
 1323   :   FF;
 1324   :   FF;
 1325   :   FF;
 1326   :   FF;
 1327   :   FF;
 1328   :   FF;
 1329   :   FF;
 132A   :   FF;
 132B   :   FF;
 132C   :   FF;
 132D   :   FF;
 132E   :   FF;
 132F   :   FF;
 1330   :   FF;
 1331   :   FF;
 1332   :   FF;
 1333   :   FF;
 1334   :   FF;
 1335   :   FF;
 1336   :   FF;
 1337   :   FF;
 1338   :   FF;
 1339   :   FF;
 133A   :   FF;
 133B   :   FF;
 133C   :   FF;
 133D   :   FF;
 133E   :   FF;
 133F   :   FF;
 1340   :   FF;
 1341   :   FF;
 1342   :   FF;
 1343   :   FF;
 1344   :   FF;
 1345   :   FF;
 1346   :   FF;
 1347   :   FF;
 1348   :   FF;
 1349   :   FF;
 134A   :   FF;
 134B   :   FF;
 134C   :   FF;
[...]
 FB1F   :   31;
 FB20   :   71;
 FB21   :   31;
 FB22   :   90;
 FB23   :   90;
 FB24   :   90;
 FB25   :    0;
 FB26   :   82;
 FB27   :   34;
 FB28   :   84;
 FB29   :   2C;
 FB2A   :   85;
 FB2B   :   22;
 FB2C   :   84;
 FB2D   :   24;
 FB2E   :   82;
 FB2F   :   26;
 FB30   :   36;
 FB31   :    4;
 FB32   :   36;
 FB33   :   86;
 FB34   :   26;
 FB35   :    0;
 FB36   :   AC;
 FB37   :   27;
 FB38   :   5D;
 FB39   :   1D;
 FB3A   :   9E;
 FB3B   :   2D;
 FB3C   :   AC;
 FB3D   :   9F;
 FB3E   :   85;
 FB3F   :   14;
 FB40   :   82;
 FB41   :   20;
 FB42   :   84;
 FB43   :   22;
 FB44   :   2C;
 FB45   :   1E;
 FB46   :   1E;
 FB47   :   82;
 FB48   :   2C;
 FB49   :   2C;
 FB4A   :   1E;
 FB4B   :    4;
 FB4C   :   87;
 FB4D   :   2A;
 FB4E   :   40;
 FB4F   :   40;
 FB50   :   40;
 FB51   :   3A;
 FB52   :   36;
 FB53   :   82;
 FB54   :   34;
 FB55   :   2C;
 FB56   :    4;
 FB57   :   26;
 FB58   :   86;
 FB59   :   22;
 FB5A   :    0;
 FB5B   :   E3;
 FB5C   :   F7;
 FB5D   :   F7;
 FB5E   :   F7;
 FB5F   :   F5;
 FB60   :   F1;
 FB61   :   AC;
 FB62   :   27;
 FB63   :   9E;
 FB64   :   9D;
 FB65   :   85;
 FB66   :   18;
 FB67   :   82;
 FB68   :   1E;
 FB69   :   84;
 FB6A   :   22;
 FB6B   :   2A;
 FB6C   :   22;
 FB6D   :   22;
 FB6E   :   82;
 FB6F   :   2C;
 FB70   :   2C;
 FB71   :   22;
 FB72   :    4;
 FB73   :   86;
 FB74   :    4;
 FB75   :   82;
 FB76   :   2A;
 FB77   :   36;
 FB78   :    4;
 FB79   :   36;
 FB7A   :   87;
 FB7B   :   36;
 FB7C   :   34;
 FB7D   :   30;
 FB7E   :   86;
 FB7F   :   2C;
 FB80   :    4;
 FB81   :    0;
 FB82   :    0;
 FB83   :   68;
 FB84   :   6A;
 FB85   :   6C;
 FB86   :   45;
 FB87   :   A2;
 FB88   :   31;
 FB89   :   B0;
 FB8A   :   F1;
 FB8B   :   ED;
 FB8C   :   EB;
 FB8D   :   A2;
 FB8E   :   1D;
 FB8F   :   9C;
 FB90   :   95;
 FB91   :   86;
 FB92   :    4;
 FB93   :   85;
 FB94   :   22;
 FB95   :   82;
 FB96   :   22;
 FB97   :   87;
 FB98   :   22;
 FB99   :   26;
 FB9A   :   2A;
 FB9B   :   84;
 FB9C   :   2C;
 FB9D   :   22;
 FB9E   :   86;
 FB9F   :   14;
 FBA0   :   51;
 FBA1   :   90;
 FBA2   :   31;
 FBA3   :   11;
 FBA4   :    0;
 FBA5   :   80;
 FBA6   :   22;
 FBA7   :   28;
 FBA8   :   22;
 FBA9   :   26;
 FBAA   :   22;
 FBAB   :   24;
 FBAC   :   22;
 FBAD   :   26;
 FBAE   :   22;
 FBAF   :   28;
 FBB0   :   22;
 FBB1   :   2A;
 FBB2   :   22;
 FBB3   :   28;
 FBB4   :   22;
 FBB5   :   26;
 FBB6   :   22;
 FBB7   :   28;
 FBB8   :   22;
 FBB9   :   26;
 FBBA   :   22;
 FBBB   :   24;
 FBBC   :   22;
 FBBD   :   26;
 FBBE   :   22;
 FBBF   :   28;
 FBC0   :   22;
 FBC1   :   2A;
 FBC2   :   22;
 FBC3   :   28;
 FBC4   :   22;
 FBC5   :   26;
 FBC6   :   20;
 FBC7   :   26;
 FBC8   :   20;
 FBC9   :   24;
 FBCA   :   20;
 FBCB   :   26;
 FBCC   :   20;
 FBCD   :   28;
 FBCE   :   20;
 FBCF   :   26;
 FBD0   :   20;
 FBD1   :   28;
 FBD2   :   20;
 FBD3   :   26;
 FBD4   :   20;
 FBD5   :   24;
 FBD6   :   20;
 FBD7   :   26;
 FBD8   :   20;
 FBD9   :   24;
 FBDA   :   20;
 FBDB   :   26;
 FBDC   :   20;
 FBDD   :   28;
 FBDE   :   20;
 FBDF   :   26;
 FBE0   :   20;
 FBE1   :   28;
 FBE2   :   20;
 FBE3   :   26;
 FBE4   :   20;
 FBE5   :   24;
 FBE6   :   28;
 FBE7   :   30;
 FBE8   :   28;
 FBE9   :   32;
 FBEA   :   28;
 FBEB   :   30;
 FBEC   :   28;
 FBED   :   2E;
 FBEE   :   28;
 FBEF   :   30;
 FBF0   :   28;
 FBF1   :   2E;
 FBF2   :   28;
 FBF3   :   2C;
 FBF4   :   28;
 FBF5   :   2E;
 FBF6   :   28;
 FBF7   :   30;
 FBF8   :   28;
 FBF9   :   32;
 FBFA   :   28;
 FBFB   :   30;
 FBFC   :   28;
 FBFD   :   2E;
 FBFE   :   28;
 FBFF   :   30;
 FC00   :   28;
 FC01   :   2E;
 FC02   :   28;
 FC03   :   2C;
 FC04   :   28;
 FC05   :   2E;
 FC06   :    0;
 FC07   :    4;
 FC08   :   70;
 FC09   :   6E;
 FC0A   :   6C;
 FC0B   :   6E;
 FC0C   :   70;
 FC0D   :   72;
 FC0E   :   70;
 FC0F   :   6E;
 FC10   :   70;
 FC11   :   6E;
 FC12   :   6C;
 FC13   :   6E;
 FC14   :   70;
 FC15   :   72;
 FC16   :   70;
 FC17   :   6E;
 FC18   :   6E;
 FC19   :   6C;
 FC1A   :   6E;
 FC1B   :   70;
 FC1C   :   6E;
 FC1D   :   70;
 FC1E   :   6E;
 FC1F   :   6C;
 FC20   :   6E;
 FC21   :   6C;
 FC22   :   6E;
 FC23   :   70;
 FC24   :   6E;
 FC25   :   70;
 FC26   :   6E;
 FC27   :   6C;
 FC28   :   76;
 FC29   :   78;
 FC2A   :   76;
 FC2B   :   74;
 FC2C   :   76;
 FC2D   :   74;
 FC2E   :   72;
 FC2F   :   74;
 FC30   :   76;
 FC31   :   78;
 FC32   :   76;
 FC33   :   74;
 FC34   :   76;
 FC35   :   74;
 FC36   :   72;
 FC37   :   74;
 FC38   :   84;
 FC39   :   1A;
 FC3A   :   83;
 FC3B   :   18;
 FC3C   :   20;
 FC3D   :   84;
 FC3E   :   1E;
 FC3F   :   83;
 FC40   :   1C;
 FC41   :   28;
 FC42   :   26;
 FC43   :   1C;
 FC44   :   1A;
 FC45   :   1C;
 FC46   :   82;
 FC47   :   2C;
 FC48   :    4;
 FC49   :    4;
 FC4A   :   22;
 FC4B   :    4;
 FC4C   :    4;
 FC4D   :   84;
 FC4E   :   1C;
 FC4F   :   87;
 FC50   :   26;
 FC51   :   2A;
 FC52   :   26;
 FC53   :   84;
 FC54   :   24;
 FC55   :   28;
 FC56   :   24;
 FC57   :   80;
 FC58   :   22;
 FC59   :    0;
 FC5A   :   9C;
 FC5B   :    5;
 FC5C   :   94;
 FC5D   :    5;
 FC5E   :    D;
 FC5F   :   9F;
 FC60   :   1E;
 FC61   :   9C;
 FC62   :   98;
 FC63   :   9D;
 FC64   :   82;
 FC65   :   22;
 FC66   :    4;
 FC67   :    4;
 FC68   :   1C;
 FC69   :    4;
 FC6A   :    4;
 FC6B   :   84;
 FC6C   :   14;
 FC6D   :   86;
 FC6E   :   1E;
 FC6F   :   80;
 FC70   :   16;
 FC71   :   80;
 FC72   :   14;
 FC73   :   81;
 FC74   :   1C;
 FC75   :   30;
 FC76   :    4;
 FC77   :   30;
 FC78   :   30;
 FC79   :    4;
 FC7A   :   1E;
 FC7B   :   32;
 FC7C   :    4;
 FC7D   :   32;
 FC7E   :   32;
 FC7F   :    4;
 FC80   :   20;
 FC81   :   34;
 FC82   :    4;
 FC83   :   34;
 FC84   :   34;
 FC85   :    4;
 FC86   :   36;
 FC87   :    4;
 FC88   :   84;
 FC89   :   36;
 FC8A   :    0;
 FC8B   :   46;
 FC8C   :   A4;
 FC8D   :   64;
 FC8E   :   A4;
 FC8F   :   48;
 FC90   :   A6;
 FC91   :   66;
 FC92   :   A6;
 FC93   :   4A;
 FC94   :   A8;
 FC95   :   68;
 FC96   :   A8;
 FC97   :   6A;
 FC98   :   44;
 FC99   :   2B;
 FC9A   :   81;
 FC9B   :   2A;
 FC9C   :   42;
 FC9D   :    4;
 FC9E   :   42;
 FC9F   :   42;
 FCA0   :    4;
 FCA1   :   2C;
 FCA2   :   64;
 FCA3   :    4;
 FCA4   :   64;
 FCA5   :   64;
 FCA6   :    4;
 FCA7   :   2E;
 FCA8   :   46;
 FCA9   :    4;
 FCAA   :   46;
 FCAB   :   46;
 FCAC   :    4;
 FCAD   :   22;
 FCAE   :    4;
 FCAF   :   84;
 FCB0   :   22;
 FCB1   :   87;
 FCB2   :    4;
 FCB3   :    6;
 FCB4   :    C;
 FCB5   :   14;
 FCB6   :   1C;
 FCB7   :   22;
 FCB8   :   86;
 FCB9   :   2C;
 FCBA   :   22;
 FCBB   :   87;
 FCBC   :    4;
 FCBD   :   60;
 FCBE   :    E;
 FCBF   :   14;
 FCC0   :   1A;
 FCC1   :   24;
 FCC2   :   86;
 FCC3   :   2C;
 FCC4   :   24;
 FCC5   :   87;
 FCC6   :    4;
 FCC7   :    8;
 FCC8   :   10;
 FCC9   :   18;
 FCCA   :   1E;
 FCCB   :   28;
 FCCC   :   86;
 FCCD   :   30;
 FCCE   :   30;
 FCCF   :   80;
 FCD0   :   64;
 FCD1   :    0;
 FCD2   :   CD;
 FCD3   :   D5;
 FCD4   :   DD;
 FCD5   :   E3;
 FCD6   :   ED;
 FCD7   :   F5;
 FCD8   :   BB;
 FCD9   :   B5;
 FCDA   :   CF;
 FCDB   :   D5;
 FCDC   :   DB;
 FCDD   :   E5;
 FCDE   :   ED;
 FCDF   :   F3;
 FCE0   :   BD;
 FCE1   :   B3;
 FCE2   :   D1;
 FCE3   :   D9;
 FCE4   :   DF;
 FCE5   :   E9;
 FCE6   :   F1;
 FCE7   :   F7;
 FCE8   :   BF;
 FCE9   :   FF;
 FCEA   :   FF;
 FCEB   :   FF;
 FCEC   :   34;
 FCED   :    0;
 FCEE   :   86;
 FCEF   :    4;
 FCF0   :   87;
 FCF1   :   14;
 FCF2   :   1C;
 FCF3   :   22;
 FCF4   :   86;
 FCF5   :   34;
 FCF6   :   84;
 FCF7   :   2C;
 FCF8   :    4;
 FCF9   :    4;
 FCFA   :    4;
 FCFB   :   87;
 FCFC   :   14;
 FCFD   :   1A;
 FCFE   :   24;
 FCFF   :   86;
 FD00   :   32;
 FD01   :   84;
 FD02   :   2C;
 FD03   :    4;
 FD04   :   86;
 FD05   :    4;
 FD06   :   87;
 FD07   :   18;
 FD08   :   1E;
 FD09   :   28;
 FD0A   :   86;
 FD0B   :   36;
 FD0C   :   87;
 FD0D   :   30;
 FD0E   :   30;
 FD0F   :   30;
 FD10   :   80;
 FD11   :   2C;
 FD12   :   82;
 FD13   :   14;
 FD14   :   2C;
 FD15   :   62;
 FD16   :   26;
 FD17   :   10;
 FD18   :   28;
 FD19   :   80;
 FD1A   :    4;
 FD1B   :   82;
 FD1C   :   14;
 FD1D   :   2C;
 FD1E   :   62;
 FD1F   :   26;
 FD20   :   10;
 FD21   :   28;
 FD22   :   80;
 FD23   :    4;
 FD24   :   82;
 FD25   :    8;
 FD26   :   1E;
 FD27   :   5E;
 FD28   :   18;
 FD29   :   60;
 FD2A   :   1A;
 FD2B   :   80;
 FD2C   :    4;
 FD2D   :   82;
 FD2E   :    8;
 FD2F   :   1E;
 FD30   :   5E;
 FD31   :   18;
 FD32   :   60;
 FD33   :   1A;
 FD34   :   86;
 FD35   :    4;
 FD36   :   83;
 FD37   :   1A;
 FD38   :   18;
 FD39   :   16;
 FD3A   :   84;
 FD3B   :   14;
 FD3C   :   1A;
 FD3D   :   18;
 FD3E   :    E;
 FD3F   :    C;
 FD40   :   16;
 FD41   :   83;
 FD42   :   14;
 FD43   :   20;
 FD44   :   1E;
 FD45   :   1C;
 FD46   :   28;
 FD47   :   26;
 FD48   :   87;
 FD49   :   24;
 FD4A   :   1A;
 FD4B   :   12;
 FD4C   :   10;
 FD4D   :   62;
 FD4E   :    E;
 FD4F   :   80;
 FD50   :    4;
 FD51   :    4;
 FD52   :    0;
 FD53   :   82;
 FD54   :   18;
 FD55   :   1C;
 FD56   :   20;
 FD57   :   22;
 FD58   :   26;
 FD59   :   28;
 FD5A   :   81;
 FD5B   :   2A;
 FD5C   :   2A;
 FD5D   :   2A;
 FD5E   :    4;
 FD5F   :   2A;
 FD60   :    4;
 FD61   :   83;
 FD62   :   2A;
 FD63   :   82;
 FD64   :   22;
 FD65   :   86;
 FD66   :   34;
 FD67   :   32;
 FD68   :   34;
 FD69   :   81;
 FD6A   :    4;
 FD6B   :   22;
 FD6C   :   26;
 FD6D   :   2A;
 FD6E   :   2C;
 FD6F   :   30;
 FD70   :   86;
 FD71   :   34;
 FD72   :   83;
 FD73   :   32;
 FD74   :   82;
 FD75   :   36;
 FD76   :   84;
 FD77   :   34;
 FD78   :   85;
 FD79   :    4;
 FD7A   :   81;
 FD7B   :   22;
 FD7C   :   86;
 FD7D   :   30;
 FD7E   :   2E;
 FD7F   :   30;
 FD80   :   81;
 FD81   :    4;
 FD82   :   22;
 FD83   :   26;
 FD84   :   2A;
 FD85   :   2C;
 FD86   :   2E;
 FD87   :   86;
 FD88   :   30;
 FD89   :   83;
 FD8A   :   22;
 FD8B   :   82;
 FD8C   :   36;
 FD8D   :   84;
 FD8E   :   34;
 FD8F   :   85;
 FD90   :    4;
 FD91   :   81;
 FD92   :   22;
 FD93   :   86;
 FD94   :   3A;
 FD95   :   3A;
 FD96   :   3A;
 FD97   :   82;
 FD98   :   3A;
 FD99   :   81;
 FD9A   :   40;
 FD9B   :   82;
 FD9C   :    4;
 FD9D   :   81;
 FD9E   :   3A;
 FD9F   :   86;
 FDA0   :   36;
 FDA1   :   36;
 FDA2   :   36;
 FDA3   :   82;
 FDA4   :   36;
 FDA5   :   81;
 FDA6   :   3A;
 FDA7   :   82;
 FDA8   :    4;
 FDA9   :   81;
 FDAA   :   36;
 FDAB   :   86;
 FDAC   :   34;
 FDAD   :   82;
 FDAE   :   26;
 FDAF   :   2A;
 FDB0   :   36;
 FDB1   :   81;
 FDB2   :   34;
 FDB3   :   34;
 FDB4   :   85;
 FDB5   :   34;
 FDB6   :   81;
 FDB7   :   2A;
 FDB8   :   86;
 FDB9   :   2C;
 FDBA   :    0;
 FDBB   :   84;
 FDBC   :   90;
 FDBD   :   B0;
 FDBE   :   84;
 FDBF   :   50;
 FDC0   :   50;
 FDC1   :   B0;
 FDC2   :    0;
 FDC3   :   98;
 FDC4   :   96;
 FDC5   :   94;
 FDC6   :   92;
 FDC7   :   94;
 FDC8   :   96;
 FDC9   :   58;
 FDCA   :   58;
 FDCB   :   58;
 FDCC   :   44;
 FDCD   :   5C;
 FDCE   :   44;
 FDCF   :   9F;
 FDD0   :   A3;
 FDD1   :   A1;
 FDD2   :   A3;
 FDD3   :   85;
 FDD4   :   A3;
 FDD5   :   E0;
 FDD6   :   A6;
 FDD7   :   23;
 FDD8   :   C4;
 FDD9   :   9F;
 FDDA   :   9D;
 FDDB   :   9F;
 FDDC   :   85;
 FDDD   :   9F;
 FDDE   :   D2;
 FDDF   :   A6;
 FDE0   :   23;
 FDE1   :   C4;
 FDE2   :   B5;
 FDE3   :   B1;
 FDE4   :   AF;
 FDE5   :   85;
 FDE6   :   B1;
 FDE7   :   AF;
 FDE8   :   AD;
 FDE9   :   85;
 FDEA   :   95;
 FDEB   :   9E;
 FDEC   :   A2;
 FDED   :   AA;
 FDEE   :   6A;
 FDEF   :   6A;
 FDF0   :   6B;
 FDF1   :   5E;
 FDF2   :   9D;
 FDF3   :   84;
 FDF4   :    4;
 FDF5   :    4;
 FDF6   :   82;
 FDF7   :   22;
 FDF8   :   86;
 FDF9   :   22;
 FDFA   :   82;
 FDFB   :   14;
 FDFC   :   22;
 FDFD   :   2C;
 FDFE   :   12;
 FDFF   :   22;
 FE00   :   2A;
 FE01   :   14;
 FE02   :   22;
 FE03   :   2C;
 FE04   :   1C;
 FE05   :   22;
 FE06   :   2C;
 FE07   :   14;
 FE08   :   22;
 FE09   :   2C;
 FE0A   :   12;
 FE0B   :   22;
 FE0C   :   2A;
 FE0D   :   14;
 FE0E   :   22;
 FE0F   :   2C;
 FE10   :   1C;
 FE11   :   22;
 FE12   :   2C;
 FE13   :   18;
 FE14   :   22;
 FE15   :   2A;
 FE16   :   16;
 FE17   :   20;
 FE18   :   28;
 FE19   :   18;
 FE1A   :   22;
 FE1B   :   2A;
 FE1C   :   12;
 FE1D   :   22;
 FE1E   :   2A;
 FE1F   :   18;
 FE20   :   22;
 FE21   :   2A;
 FE22   :   12;
 FE23   :   22;
 FE24   :   2A;
 FE25   :   14;
 FE26   :   22;
 FE27   :   2C;
 FE28   :    C;
 FE29   :   22;
 FE2A   :   2C;
 FE2B   :   14;
 FE2C   :   22;
 FE2D   :   34;
 FE2E   :   12;
 FE2F   :   22;
 FE30   :   30;
 FE31   :   10;
 FE32   :   22;
 FE33   :   2E;
 FE34   :   16;
 FE35   :   22;
 FE36   :   34;
 FE37   :   18;
 FE38   :   26;
 FE39   :   36;
 FE3A   :   16;
 FE3B   :   26;
 FE3C   :   36;
 FE3D   :   14;
 FE3E   :   26;
 FE3F   :   36;
 FE40   :   12;
 FE41   :   22;
 FE42   :   36;
 FE43   :   5C;
 FE44   :   22;
 FE45   :   34;
 FE46   :    C;
 FE47   :   22;
 FE48   :   22;
 FE49   :   81;
 FE4A   :   1E;
 FE4B   :   1E;
 FE4C   :   85;
 FE4D   :   1E;
 FE4E   :   81;
 FE4F   :   12;
 FE50   :   86;
 FE51   :   14;
 FE52   :   81;
 FE53   :   2C;
 FE54   :   22;
 FE55   :   1C;
 FE56   :   2C;
 FE57   :   22;
 FE58   :   1C;
 FE59   :   85;
 FE5A   :   2C;
 FE5B   :    4;
 FE5C   :   81;
 FE5D   :   2E;
 FE5E   :   24;
 FE5F   :   1E;
 FE60   :   2E;
 FE61   :   24;
 FE62   :   1E;
 FE63   :   85;
 FE64   :   2E;
 FE65   :    4;
 FE66   :   81;
 FE67   :   32;
 FE68   :   28;
 FE69   :   22;
 FE6A   :   32;
 FE6B   :   28;
 FE6C   :   22;
 FE6D   :   85;
 FE6E   :   32;
 FE6F   :   87;
 FE70   :   36;
 FE71   :   36;
 FE72   :   36;
 FE73   :   84;
 FE74   :   3A;
 FE75   :    0;
 FE76   :   5C;
 FE77   :   54;
 FE78   :   4C;
 FE79   :   5C;
 FE7A   :   54;
 FE7B   :   4C;
 FE7C   :   5C;
 FE7D   :   1C;
 FE7E   :   1C;
 FE7F   :   5C;
 FE80   :   5C;
 FE81   :   5C;
 FE82   :   5C;
 FE83   :   5E;
 FE84   :   56;
 FE85   :   4E;
 FE86   :   5E;
 FE87   :   56;
 FE88   :   4E;
 FE89   :   5E;
 FE8A   :   1E;
 FE8B   :   1E;
 FE8C   :   5E;
 FE8D   :   5E;
 FE8E   :   5E;
 FE8F   :   5E;
 FE90   :   62;
 FE91   :   5A;
 FE92   :   50;
 FE93   :   62;
 FE94   :   5A;
 FE95   :   50;
 FE96   :   62;
 FE97   :   22;
 FE98   :   22;
 FE99   :   62;
 FE9A   :   E7;
 FE9B   :   E7;
 FE9C   :   E7;
 FE9D   :   2B;
 FE9E   :   86;
 FE9F   :   14;
 FEA0   :   81;
 FEA1   :   14;
 FEA2   :   80;
 FEA3   :   14;
 FEA4   :   14;
 FEA5   :   81;
 FEA6   :   14;
 FEA7   :   14;
 FEA8   :   14;
 FEA9   :   14;
 FEAA   :   86;
 FEAB   :   16;
 FEAC   :   81;
 FEAD   :   16;
 FEAE   :   80;
 FEAF   :   16;
 FEB0   :   16;
 FEB1   :   81;
 FEB2   :   16;
 FEB3   :   16;
 FEB4   :   16;
 FEB5   :   16;
 FEB6   :   81;
 FEB7   :   28;
 FEB8   :   22;
 FEB9   :   1A;
 FEBA   :   28;
 FEBB   :   22;
 FEBC   :   1A;
 FEBD   :   28;
 FEBE   :   80;
 FEBF   :   28;
 FEC0   :   28;
 FEC1   :   81;
 FEC2   :   28;
 FEC3   :   87;
 FEC4   :   2C;
 FEC5   :   2C;
 FEC6   :   2C;
 FEC7   :   84;
 FEC8   :   30;
 FEC9   :   83;
 FECA   :    4;
 FECB   :   84;
 FECC   :    C;
 FECD   :   83;
 FECE   :   62;
 FECF   :   10;
 FED0   :   84;
 FED1   :   12;
 FED2   :   83;
 FED3   :   1C;
 FED4   :   22;
 FED5   :   1E;
 FED6   :   22;
 FED7   :   26;
 FED8   :   18;
 FED9   :   1E;
 FEDA   :    4;
 FEDB   :   1C;
 FEDC   :    0;
 FEDD   :   E3;
 FEDE   :   E1;
 FEDF   :   E3;
 FEE0   :   1D;
 FEE1   :   DE;
 FEE2   :   E0;
 FEE3   :   23;
 FEE4   :   EC;
 FEE5   :   75;
 FEE6   :   74;
 FEE7   :   F0;
 FEE8   :   F4;
 FEE9   :   F6;
 FEEA   :   EA;
 FEEB   :   31;
 FEEC   :   2D;
 FEED   :   83;
 FEEE   :   12;
 FEEF   :   14;
 FEF0   :    4;
 FEF1   :   18;
 FEF2   :   1A;
 FEF3   :   1C;
 FEF4   :   14;
 FEF5   :   26;
 FEF6   :   22;
 FEF7   :   1E;
 FEF8   :   1C;
 FEF9   :   18;
 FEFA   :   1E;
 FEFB   :   22;
 FEFC   :    C;
 FEFD   :   14;
 FEFE   :   FF;
 FEFF   :   FF;
 FF00   :    0;
 FF01   :   88;
 FF02   :    0;
 FF03   :   2B;
 FF04   :    0;
 FF05   :    0;
 FF06   :    2;
 FF07   :   72;
 FF08   :    2;
 FF09   :   4F;
 FF0A   :    2;
 FF0B   :   2E;
 FF0C   :    2;
 FF0D   :    E;
 FF0E   :    1;
 FF0F   :   F1;
 FF10   :    1;
 FF11   :   BA;
 FF12   :    1;
 FF13   :   A1;
 FF14   :    1;
 FF15   :   8A;
 FF16   :    1;
 FF17   :   74;
 FF18   :    1;
 FF19   :   5F;
 FF1A   :    1;
 FF1B   :   4B;
 FF1C   :    1;
 FF1D   :   39;
 FF1E   :    1;
 FF1F   :   27;
 FF20   :    1;
 FF21   :   17;
 FF22   :    1;
 FF23   :    7;
 FF24   :    0;
 FF25   :   F8;
 FF26   :    0;
 FF27   :   EA;
 FF28   :    0;
 FF29   :   DD;
 FF2A   :    0;
 FF2B   :   D1;
 FF2C   :    0;
 FF2D   :   C5;
 FF2E   :    0;
 FF2F   :   BA;
 FF30   :    0;
 FF31   :   AF;
 FF32   :    0;
 FF33   :   A5;
 FF34   :    0;
 FF35   :   9C;
 FF36   :    0;
 FF37   :   94;
 FF38   :    0;
 FF39   :   8B;
 FF3A   :    0;
 FF3B   :   83;
 FF3C   :    0;
 FF3D   :   7C;
 FF3E   :    0;
 FF3F   :   6E;
 FF40   :    0;
 FF41   :   74;
 FF42   :    0;
 FF43   :   68;
 FF44   :    0;
 FF45   :   4E;
 FF46   :    0;
 FF47   :   5C;
 FF48   :    0;
 FF49   :   58;
 FF4A   :    0;
 FF4B   :   52;
 FF4C   :    0;
 FF4D   :   4A;
 FF4E   :    0;
 FF4F   :   42;
 FF50   :    0;
 FF51   :   3E;
 FF52   :    0;
 FF53   :   36;
 FF54   :    0;
 FF55   :   31;
 FF56   :    0;
 FF57   :   27;
 FF58   :    0;
 FF59   :   20;
 FF5A   :    4;
 FF5B   :   1D;
 FF5C   :    3;
 FF5D   :   15;
 FF5E   :    2;
 FF5F   :   BE;
 FF60   :    2;
 FF61   :   98;
 FF62   :    1;
 FF63   :   D5;
 FF64   :    0;
 FF65   :   62;
 FF66   :    4;
 FF67   :    8;
 FF68   :   10;
 FF69   :   20;
 FF6A   :   40;
 FF6B   :   18;
 FF6C   :   30;
 FF6D   :    C;
 FF6E   :    3;
 FF6F   :    6;
 FF70   :    C;
 FF71   :   18;
 FF72   :   30;
 FF73   :   12;
 FF74   :   24;
 FF75   :    8;
 FF76   :    3;
 FF77   :    6;
 FF78   :    C;
 FF79   :   18;
 FF7A   :   30;
 FF7B   :   12;
 FF7C   :   24;
 FF7D   :    8;
 FF7E   :   24;
 FF7F   :    2;
 FF80   :    6;
 FF81   :    4;
 FF82   :    C;
 FF83   :   12;
 FF84   :   18;
 FF85   :    8;
 FF86   :   1B;
 FF87   :    1;
 FF88   :    5;
 FF89   :    3;
 FF8A   :    9;
 FF8B   :    D;
 FF8C   :   12;
 FF8D   :    6;
 FF8E   :   12;
 FF8F   :    1;
 FF90   :    3;
 FF91   :    2;
 FF92   :    6;
 FF93   :    9;
 FF94   :    C;
 FF95   :    4;
 FF96   :   98;
 FF97   :   99;
 FF98   :   9A;
 FF99   :   9B;
 FF9A   :   90;
 FF9B   :   94;
 FF9C   :   94;
 FF9D   :   95;
 FF9E   :   95;
 FF9F   :   96;
 FFA0   :   97;
 FFA1   :   98;
 FFA2   :   90;
 FFA3   :   91;
 FFA4   :   92;
 FFA5   :   92;
 FFA6   :   93;
 FFA7   :   93;
 FFA8   :   93;
 FFA9   :   94;
 FFAA   :   94;
 FFAB   :   94;
 FFAC   :   94;
 FFAD   :   94;
 FFAE   :   94;
 FFAF   :   95;
 FFB0   :   95;
 FFB1   :   95;
 FFB2   :   95;
 FFB3   :   95;
 FFB4   :   95;
 FFB5   :   96;
 FFB6   :   96;
 FFB7   :   96;
 FFB8   :   96;
 FFB9   :   96;
 FFBA   :   96;
 FFBB   :   96;
 FFBC   :   96;
 FFBD   :   96;
 FFBE   :   96;
 FFBF   :   96;
 FFC0   :   96;
 FFC1   :   96;
 FFC2   :   96;
 FFC3   :   96;
 FFC4   :   96;
 FFC5   :   96;
 FFC6   :   95;
 FFC7   :   95;
 FFC8   :   94;
 FFC9   :   93;
 FFCA   :   15;
 FFCB   :   16;
 FFCC   :   16;
 FFCD   :   17;
 FFCE   :   17;
 FFCF   :   18;
 FFD0   :   19;
 FFD1   :   19;
 FFD2   :   1A;
 FFD3   :   1A;
 FFD4   :   1C;
 FFD5   :   1D;
 FFD6   :   1D;
 FFD7   :   1E;
 FFD8   :   1E;
 FFD9   :   1F;
 FFDA   :   1F;
 FFDB   :   1F;
 FFDC   :   1F;
 FFDD   :   1E;
 FFDE   :   1D;
 FFDF   :   1C;
 FFE0   :   1E;
 FFE1   :   1F;
 FFE2   :   1F;
 FFE3   :   1E;
 FFE4   :   1D;
 FFE5   :   1C;
 FFE6   :   1A;
 FFE7   :   18;
 FFE8   :   16;
 FFE9   :   14;
 FFEA   :   15;
 FFEB   :   16;
 FFEC   :   16;
 FFED   :   17;
 FFEE   :   17;
 FFEF   :   18;
 FFF0   :   19;
 FFF1   :   19;
 FFF2   :   1A;
 FFF3   :   1A;
 FFF4   :   1C;
 FFF5   :   1D;
 FFF6   :   1D;
 FFF7   :   1E;
 FFF8   :   1E;
 FFF9   :   1F;
 FFFA   :   82;
 FFFB   :   80;
 FFFC   :    0;
 FFFD   :   80;
 FFFE   :   F0;
 FFFF   :   FF;
 
END; 