-- Copyright (C) 1991-2013 Altera Corporation
-- Your use of Altera Corporation's design tools, logic functions 
-- and other software and tools, and its AMPP partner logic 
-- functions, and any output files from any of the foregoing 
-- (including device programming or simulation files), and any 
-- associated documentation or information are expressly subject 
-- to the terms and conditions of the Altera Program License 
-- Subscription Agreement, Altera MegaCore Function License 
-- Agreement, or other applicable license agreement, including, 
-- without limitation, that your use is for the sole purpose of 
-- programming logic devices manufactured by Altera and sold by 
-- Altera or its authorized distributors.  Please refer to the 
-- applicable agreement for further details.

-- Quartus II generated Memory Initialization File (.mif)

WIDTH=8;
DEPTH=32768;

ADDRESS_RADIX=HEX;
DATA_RADIX=HEX;

CONTENT BEGIN    
    0   :   2E;
    1   :   1F;
    2   :   2D;
    3   :   2E;
    4   :   3F;
    5   :   21;
    6   :   1B;
    7   :   27;
    8   :   1F;
    9   :   36;
    A   :    0;
    B   :    0;
    C   :    0;
    D   :    0;
    E   :    0;
    F   :    0;
   10   :    0;
   11   :    0;
   12   :    0;
   13   :    0;
   14   :    0;
   15   :    0;
   16   :    0;
   17   :    1;
   18   :   11;
   19   :    0;
   1A   :    0;
   1B   :   25;
   1C   :    0;
   1D   :   10;
   1E   :    0;
   1F   :   12;
   20   :   2E;
   21   :   1F;
   22   :   2D;
   23   :   2E;
   24   :   3F;
   25   :   21;
   26   :   1B;
   27   :   27;
   28   :   1F;
   29   :   37;
   2A   :    0;
   2B   :    0;
   2C   :    0;
   2D   :    0;
   2E   :    0;
   2F   :    0;
   30   :    0;
   31   :    0;
   32   :    0;
   33   :    0;
   34   :    0;
   35   :    0;
   36   :    0;
   37   :    1;
   38   :   22;
   39   :    0;
   3A   :    0;
   3B   :   25;
   3C   :    0;
   3D   :   10;
   3E   :    0;
   3F   :   12;
   40   :   2E;
   41   :   1F;
   42   :   2D;
   43   :   2E;
   44   :   3F;
   45   :   21;
   46   :   1B;
   47   :   27;
   48   :   1F;
   49   :   38;
   4A   :    0;
   4B   :    0;
   4C   :    0;
   4D   :    0;
   4E   :    0;
   4F   :    0;
   50   :    0;
   51   :    0;
   52   :    0;
   53   :    0;
   54   :    0;
   55   :    0;
   56   :    0;
   57   :    1;
   58   :   33;
   59   :    0;
   5A   :    0;
   5B   :   25;
   5C   :    0;
   5D   :   10;
   5E   :    0;
   5F   :   12;
   60   :   2E;
   61   :   1F;
   62   :   2D;
   63   :   2E;
   64   :   3F;
   65   :   21;
   66   :   1B;
   67   :   27;
   68   :   1F;
   69   :   39;
   6A   :    0;
   6B   :    0;
   6C   :    0;
   6D   :    0;
   6E   :    0;
   6F   :    0;
   70   :    0;
   71   :    0;
   72   :    0;
   73   :    0;
   74   :    0;
   75   :    0;
   76   :    0;
   77   :    1;
   78   :   44;
   79   :    0;
   7A   :    0;
   7B   :   25;
   7C   :    0;
   7D   :   10;
   7E   :    0;
   7F   :   12;
   80   :   2E;
   81   :   1F;
   82   :   2D;
   83   :   2E;
   84   :   3F;
   85   :   21;
   86   :   1B;
   87   :   27;
   88   :   1F;
   89   :   3A;
   8A   :    0;
   8B   :    0;
   8C   :    0;
   8D   :    0;
   8E   :    0;
   8F   :    0;
   90   :    0;
   91   :    0;
   92   :    0;
   93   :    0;
   94   :    0;
   95   :    0;
   96   :    0;
   97   :    1;
   98   :   55;
   99   :    0;
   9A   :    0;
   9B   :   25;
   9C   :    0;
   9D   :   10;
   9E   :    0;
   9F   :   12;
   A0   :   2E;
   A1   :   1F;
   A2   :   2D;
   A3   :   2E;
   A4   :   3F;
   A5   :   21;
   A6   :   1B;
   A7   :   27;
   A8   :   1F;
   A9   :   3B;
   AA   :    0;
   AB   :    0;
   AC   :    0;
   AD   :    0;
   AE   :    0;
   AF   :    0;
   B0   :    0;
   B1   :    0;
   B2   :    0;
   B3   :    0;
   B4   :    0;
   B5   :    0;
   B6   :    0;
   B7   :    1;
   B8   :   66;
   B9   :    0;
   BA   :    0;
   BB   :   25;
   BC   :    0;
   BD   :   10;
   BE   :    0;
   BF   :   12;
   C0   :   2E;
   C1   :   1F;
   C2   :   2D;
   C3   :   2E;
   C4   :   3F;
   C5   :   21;
   C6   :   1B;
   C7   :   27;
   C8   :   1F;
   C9   :   3C;
   CA   :    0;
   CB   :    0;
   CC   :    0;
   CD   :    0;
   CE   :    0;
   CF   :    0;
   D0   :    0;
   D1   :    0;
   D2   :    0;
   D3   :    0;
   D4   :    0;
   D5   :    0;
   D6   :    0;
   D7   :    1;
   D8   :   77;
   D9   :    0;
   DA   :    0;
   DB   :   25;
   DC   :    0;
   DD   :   10;
   DE   :    0;
   DF   :   12;
   E0   :   2E;
   E1   :   1F;
   E2   :   2D;
   E3   :   2E;
   E4   :   3F;
   E5   :   21;
   E6   :   1B;
   E7   :   27;
   E8   :   1F;
   E9   :   3D;
   EA   :    0;
   EB   :    0;
   EC   :    0;
   ED   :    0;
   EE   :    0;
   EF   :    0;
   F0   :    0;
   F1   :    0;
   F2   :    0;
   F3   :    0;
   F4   :    0;
   F5   :    0;
   F6   :    0;
   F7   :    1;
   F8   :   88;
   F9   :    0;
   FA   :    0;
   FB   :   25;
   FC   :    0;
   FD   :   10;
   FE   :    0;
   FF   :   12;
  100   :   2E;
  101   :   1F;
  102   :   2D;
  103   :   2E;
  104   :   3F;
  105   :   21;
  106   :   1B;
  107   :   27;
  108   :   1F;
  109   :   3E;
  10A   :    0;
  10B   :    0;
  10C   :    0;
  10D   :    0;
  10E   :    0;
  10F   :    0;
  110   :    0;
  111   :    0;
  112   :    0;
  113   :    0;
  114   :    0;
  115   :    0;
  116   :    0;
  117   :    1;
  118   :   99;
  119   :    0;
  11A   :    0;
  11B   :   25;
  11C   :    0;
  11D   :   10;
  11E   :    0;
  11F   :   12;
  120   :   2E;
  121   :   1F;
  122   :   2D;
  123   :   2E;
  124   :   3F;
  125   :   21;
  126   :   1B;
  127   :   27;
  128   :   1F;
  129   :   3A;
  12A   :    0;
  12B   :    0;
  12C   :    0;
  12D   :    0;
  12E   :    0;
  12F   :    0;
  130   :    0;
  131   :    0;
  132   :    0;
  133   :    0;
  134   :    0;
  135   :    0;
  136   :    0;
  137   :    1;
  138   :   12;
  139   :    0;
  13A   :    0;
  13B   :   25;
  13C   :    0;
  13D   :   10;
  13E   :    0;
  13F   :   12;
  140   :   2E;
  141   :   1F;
  142   :   2D;
  143   :   2E;
  144   :   3F;
  145   :   21;
  146   :   1B;
  147   :   27;
  148   :   1F;
  149   :   39;
  14A   :    0;
  14B   :    0;
  14C   :    0;
  14D   :    0;
  14E   :    0;
  14F   :    0;
  150   :    0;
  151   :    0;
  152   :    0;
  153   :    0;
  154   :    0;
  155   :    0;
  156   :    0;
  157   :    1;
  158   :   13;
  159   :    0;
  15A   :    0;
  15B   :   25;
  15C   :    0;
  15D   :   10;
  15E   :    0;
  15F   :   12;
  160   :   2E;
  161   :   1F;
  162   :   2D;
  163   :   2E;
  164   :   3F;
  165   :   21;
  166   :   1B;
  167   :   27;
  168   :   1F;
  169   :   38;
  16A   :    0;
  16B   :    0;
  16C   :    0;
  16D   :    0;
  16E   :    0;
  16F   :    0;
  170   :    0;
  171   :    0;
  172   :    0;
  173   :    0;
  174   :    0;
  175   :    0;
  176   :    0;
  177   :    1;
  178   :   14;
  179   :    0;
  17A   :    0;
  17B   :   25;
  17C   :    0;
  17D   :   10;
  17E   :    0;
  17F   :   12;
  180   :   2E;
  181   :   1F;
  182   :   2D;
  183   :   2E;
  184   :   3F;
  185   :   21;
  186   :   1B;
  187   :   27;
  188   :   1F;
  189   :   3A;
  18A   :    0;
  18B   :    0;
  18C   :    0;
  18D   :    0;
  18E   :    0;
  18F   :    0;
  190   :    0;
  191   :    0;
  192   :    0;
  193   :    0;
  194   :    0;
  195   :    0;
  196   :    0;
  197   :    1;
  198   :   15;
  199   :    0;
  19A   :    0;
  19B   :   25;
  19C   :    0;
  19D   :   10;
  19E   :    0;
  19F   :   12;
  1A0   :   2E;
  1A1   :   1F;
  1A2   :   2D;
  1A3   :   2E;
  1A4   :   3F;
  1A5   :   21;
  1A6   :   1B;
  1A7   :   27;
  1A8   :   1F;
  1A9   :   3C;
  1AA   :    0;
  1AB   :    0;
  1AC   :    0;
  1AD   :    0;
  1AE   :    0;
  1AF   :    0;
  1B0   :    0;
  1B1   :    0;
  1B2   :    0;
  1B3   :    0;
  1B4   :    0;
  1B5   :    0;
  1B6   :    0;
  1B7   :    1;
  1B8   :   16;
  1B9   :    0;
  1BA   :    0;
  1BB   :   25;
  1BC   :    0;
  1BD   :   10;
  1BE   :    0;
  1BF   :   12;
  1C0   :    0;
  1C1   :   61;
  1C2   :   61;
  1C3   :   61;
  1C4   :   61;
  1C5   :   61;
  1C6   :   61;
  1C7   :   61;
  1C8   :   61;
  1C9   :   61;
  1CA   :   61;
  1CB   :   61;
  1CC   :   61;
  1CD   :   61;
  1CE   :   61;
  1CF   :   61;
  1D0   :   61;
  1D1   :   61;
  1D2   :   61;
  1D3   :   61;
  1D4   :   61;
  1D5   :   61;
  1D6   :   61;
  1D7   :   61;
  1D8   :   61;
  1D9   :   61;
  1DA   :   61;
  1DB   :   61;
  1DC   :   61;
  1DD   :   61;
  1DE   :   61;
  1DF   :   61;
  1E0   :   61;
  1E1   :   61;
  1E2   :   61;
  1E3   :   61;
  1E4   :   61;
  1E5   :   61;
  1E6   :   61;
  1E7   :   61;
  1E8   :   61;
  1E9   :   61;
  1EA   :   61;
  1EB   :   61;
  1EC   :   61;
  1ED   :   61;
  1EE   :   61;
  1EF   :   61;
  1F0   :   61;
  1F1   :   61;
  1F2   :   61;
  1F3   :   61;
  1F4   :   61;
  1F5   :   61;
  1F6   :   61;
  1F7   :   61;
  1F8   :   61;
  1F9   :   61;
  1FA   :   61;
  1FB   :   61;
  1FC   :   61;
  1FD   :   61;
  1FE   :   61;
  1FF   :   61;
  200   :   61;
  201   :   61;
  202   :   61;
  203   :   61;
  204   :   61;
  205   :   61;
  206   :   61;
  207   :   61;
  208   :   61;
  209   :   61;
  20A   :   61;
  20B   :   61;
  20C   :   61;
  20D   :   61;
  20E   :   61;
  20F   :   61;
  210   :   61;
  211   :   61;
  212   :   61;
  213   :   61;
  214   :   61;
  215   :   61;
  216   :   61;
  217   :   61;
  218   :   61;
  219   :   61;
  21A   :   61;
  21B   :   61;
  21C   :   61;
  21D   :   61;
  21E   :   61;
  21F   :   61;
  220   :   61;
  221   :   61;
  222   :   61;
  223   :   61;
  224   :   61;
  225   :   61;
  226   :   61;
  227   :   61;
  228   :   61;
  229   :   61;
  22A   :   61;
  22B   :   61;
  22C   :   61;
  22D   :   61;
  22E   :   61;
  22F   :   61;
  230   :   61;
  231   :   61;
  232   :   61;
  233   :   61;
  234   :   61;
  235   :   61;
  236   :   61;
  237   :   61;
  238   :   61;
  239   :   61;
  23A   :   61;
  23B   :   61;
  23C   :   61;
  23D   :   61;
  23E   :   61;
  23F   :   61;
  240   :   61;
  241   :   61;
  242   :   61;
  243   :   61;
  244   :   61;
  245   :   61;
  246   :   61;
  247   :   61;
  248   :   61;
  249   :   61;
  24A   :   61;
  24B   :   61;
  24C   :   61;
  24D   :   61;
  24E   :   61;
  24F   :   61;
  250   :   61;
  251   :   61;
  252   :   61;
  253   :   61;
  254   :   61;
  255   :   61;
  256   :   61;
  257   :   61;
  258   :   61;
  259   :   61;
  25A   :   61;
  25B   :   61;
  25C   :   61;
  25D   :   61;
  25E   :   61;
  25F   :   61;
  260   :   61;
  261   :   61;
  262   :   61;
  263   :   61;
  264   :   61;
  265   :   61;
  266   :   61;
  267   :   61;
  268   :   61;
  269   :   61;
  26A   :   61;
  26B   :   61;
  26C   :   61;
  26D   :   61;
  26E   :   61;
  26F   :   61;
  270   :   61;
  271   :   61;
  272   :   61;
  273   :   61;
  274   :   61;
  275   :   61;
  276   :   61;
  277   :   61;
  278   :   61;
  279   :   61;
  27A   :   61;
  27B   :   61;
  27C   :   61;
  27D   :   61;
  27E   :   61;
  27F   :   61;
  280   :   61;
  281   :   61;
  282   :   61;
  283   :   61;
  284   :   61;
  285   :   61;
  286   :   61;
  287   :   61;
  288   :   61;
  289   :   61;
  28A   :   61;
  28B   :   61;
  28C   :   61;
  28D   :   61;
  28E   :   61;
  28F   :   61;
  290   :   61;
  291   :   61;
  292   :   61;
  293   :   61;
  294   :   61;
  295   :   61;
  296   :   61;
  297   :   61;
  298   :   61;
  299   :   61;
  29A   :   61;
  29B   :   61;
  29C   :   61;
  29D   :   61;
  29E   :   61;
  29F   :   61;
  2A0   :   61;
  2A1   :   61;
  2A2   :   61;
  2A3   :   61;
  2A4   :   61;
  2A5   :   61;
  2A6   :   61;
  2A7   :   61;
  2A8   :   61;
  2A9   :   61;
  2AA   :   61;
  2AB   :   61;
  2AC   :   61;
  2AD   :   61;
  2AE   :   61;
  2AF   :   61;
  2B0   :   61;
  2B1   :   61;
  2B2   :   61;
  2B3   :   61;
  2B4   :   61;
  2B5   :   61;
  2B6   :   61;
  2B7   :   61;
  2B8   :   61;
  2B9   :   61;
  2BA   :   61;
  2BB   :   61;
  2BC   :   61;
  2BD   :   61;
  2BE   :   61;
  2BF   :   61;
  2C0   :   61;
  2C1   :   61;
  2C2   :   61;
  2C3   :   61;
  2C4   :   61;
  2C5   :   61;
  2C6   :   61;
  2C7   :   61;
  2C8   :   61;
  2C9   :   61;
  2CA   :   61;
  2CB   :   61;
  2CC   :   61;
  2CD   :   61;
  2CE   :   61;
  2CF   :   61;
  2D0   :   61;
  2D1   :   61;
  2D2   :   61;
  2D3   :   61;
  2D4   :   61;
  2D5   :   61;
  2D6   :   61;
  2D7   :   61;
  2D8   :   61;
  2D9   :   61;
  2DA   :   61;
  2DB   :   61;
  2DC   :   61;
  2DD   :   61;
  2DE   :   61;
  2DF   :   61;
  2E0   :   61;
  2E1   :   61;
  2E2   :   61;
  2E3   :   61;
  2E4   :   61;
  2E5   :   61;
  2E6   :   61;
  2E7   :   61;
  2E8   :   61;
  2E9   :   61;
  2EA   :   61;
  2EB   :   61;
  2EC   :   61;
  2ED   :   61;
  2EE   :   61;
  2EF   :   61;
  2F0   :   61;
  2F1   :   61;
  2F2   :   61;
  2F3   :   61;
  2F4   :   61;
  2F5   :   61;
  2F6   :   61;
  2F7   :   61;
  2F8   :   61;
  2F9   :   61;
  2FA   :   61;
  2FB   :   61;
  2FC   :   61;
  2FD   :   61;
  2FE   :   61;
  2FF   :   61;
  300   :   61;
  301   :   61;
  302   :   61;
  303   :   61;
  304   :   61;
  305   :   61;
  306   :   61;
  307   :   61;
  308   :   61;
  309   :   61;
  30A   :   61;
  30B   :   61;
  30C   :   61;
  30D   :   61;
  30E   :   61;
  30F   :   61;
  310   :   61;
  311   :   61;
  312   :   61;
  313   :   61;
  314   :   61;
  315   :   61;
  316   :   61;
  317   :   61;
  318   :   61;
  319   :   61;
  31A   :   61;
  31B   :   61;
  31C   :   61;
  31D   :   61;
  31E   :   61;
  31F   :   61;
  320   :   61;
  321   :   61;
  322   :   61;
  323   :   61;
  324   :   61;
  325   :   61;
  326   :   61;
  327   :   61;
  328   :   61;
  329   :   61;
  32A   :   61;
  32B   :   61;
  32C   :   61;
  32D   :   61;
  32E   :   61;
  32F   :   61;
  330   :   61;
  331   :   61;
  332   :   61;
  333   :   61;
  334   :   61;
  335   :   61;
  336   :   61;
  337   :   61;
  338   :   61;
  339   :   61;
  33A   :   61;
  33B   :   61;
  33C   :   61;
  33D   :   61;
  33E   :   61;
  33F   :   61;
  340   :   61;
  341   :   61;
  342   :   61;
  343   :   61;
  344   :   61;
  345   :   61;
  346   :   61;
  347   :   61;
  348   :   61;
  349   :   61;
  34A   :   61;
  34B   :   61;
  34C   :   61;
  34D   :   61;
  34E   :   61;
  34F   :   61;
  350   :   61;
  351   :   61;
  352   :   61;
  353   :   61;
  354   :   61;
  355   :   61;
  356   :   61;
  357   :   61;
  358   :   61;
  359   :   61;
  35A   :   61;
  35B   :   61;
  35C   :   61;
  35D   :   61;
  35E   :   61;
  35F   :   61;
  360   :   61;
  361   :   61;
  362   :   61;
  363   :   61;
  364   :   61;
  365   :   61;
  366   :   61;
  367   :   61;
  368   :   61;
  369   :   61;
  36A   :   61;
  36B   :   61;
  36C   :   61;
  36D   :   61;
  36E   :   61;
  36F   :   61;
  370   :   61;
  371   :   61;
  372   :   61;
  373   :   61;
  374   :   61;
  375   :   61;
  376   :   61;
  377   :   61;
  378   :   61;
  379   :   61;
  37A   :   61;
  37B   :   61;
  37C   :   61;
  37D   :   61;
  37E   :   61;
  37F   :   61;
  380   :   61;
  381   :   61;
  382   :   61;
  383   :   61;
  384   :   61;
  385   :   61;
  386   :   61;
  387   :   61;
  388   :   61;
  389   :   61;
  38A   :   61;
  38B   :   61;
  38C   :   61;
  38D   :   61;
  38E   :   61;
  38F   :   61;
  390   :   61;
  391   :   61;
  392   :   61;
  393   :   61;
  394   :   61;
  395   :   61;
  396   :   61;
  397   :   61;
  398   :   61;
  399   :   61;
  39A   :   61;
  39B   :   61;
  39C   :   61;
  39D   :   61;
  39E   :   61;
  39F   :   61;
  3A0   :   61;
  3A1   :   61;
  3A2   :   61;
  3A3   :   61;
  3A4   :   61;
  3A5   :   61;
  3A6   :   61;
  3A7   :   61;
  3A8   :   61;
  3A9   :   61;
  3AA   :   61;
  3AB   :   61;
  3AC   :   61;
  3AD   :   61;
  3AE   :   61;
  3AF   :   61;
  3B0   :   61;
  3B1   :   61;
  3B2   :   61;
  3B3   :   61;
  3B4   :   61;
  3B5   :   61;
  3B6   :   61;
  3B7   :   61;
  3B8   :   61;
  3B9   :   61;
  3BA   :   61;
  3BB   :   61;
  3BC   :   61;
  3BD   :   61;
  3BE   :   61;
  3BF   :   61;
  3C0   :   61;
  3C1   :   61;
  3C2   :   61;
  3C3   :   61;
  3C4   :   61;
  3C5   :   61;
  3C6   :   61;
  3C7   :   61;
  3C8   :   61;
  3C9   :   61;
  3CA   :   61;
  3CB   :   61;
  3CC   :   61;
  3CD   :   61;
  3CE   :   61;
  3CF   :   61;
  3D0   :   61;
  3D1   :   61;
  3D2   :   61;
  3D3   :   61;
  3D4   :   61;
  3D5   :   61;
  3D6   :   61;
  3D7   :   61;
  3D8   :   61;
  3D9   :   61;
  3DA   :   61;
  3DB   :   61;
  3DC   :   61;
  3DD   :   61;
  3DE   :   61;
  3DF   :   61;
  3E0   :   61;
  3E1   :   61;
  3E2   :   61;
  3E3   :   61;
  3E4   :   61;
  3E5   :   61;
  3E6   :   61;
  3E7   :   61;
  3E8   :   61;
  3E9   :   61;
  3EA   :   61;
  3EB   :   61;
  3EC   :   61;
  3ED   :   61;
  3EE   :   61;
  3EF   :   61;
  3F0   :   61;
  3F1   :   61;
  3F2   :   61;
  3F3   :   61;
  3F4   :   61;
  3F5   :   61;
  3F6   :   61;
  3F7   :   61;
  3F8   :   61;
  3F9   :   61;
  3FA   :   61;
  3FB   :   61;
  3FC   :   61;
  3FD   :   61;
  3FE   :   61;
  3FF   :   61;
  400   :   61;
  401   :   61;
  402   :   61;
  403   :   61;
  404   :   61;
  405   :   61;
  406   :   61;
  407   :   61;
  408   :   61;
  409   :   61;
  40A   :   61;
  40B   :   61;
  40C   :   61;
  40D   :   61;
  40E   :   61;
  40F   :   61;
  410   :   61;
  411   :   61;
  412   :   61;
  413   :   61;
  414   :   61;
  415   :   61;
  416   :   61;
  417   :   61;
  418   :   61;
  419   :   61;
  41A   :   61;
  41B   :   61;
  41C   :   61;
  41D   :   61;
  41E   :   61;
  41F   :   61;
  420   :   61;
  421   :   61;
  422   :   61;
  423   :   61;
  424   :   61;
  425   :   61;
  426   :   61;
  427   :   61;
  428   :   61;
  429   :   61;
  42A   :   61;
  42B   :   61;
  42C   :   61;
  42D   :   61;
  42E   :   61;
  42F   :   61;
  430   :   61;
  431   :   61;
  432   :   61;
  433   :   61;
  434   :   61;
  435   :   61;
  436   :   61;
  437   :   61;
  438   :   61;
  439   :   61;
  43A   :   61;
  43B   :   61;
  43C   :   61;
  43D   :   61;
  43E   :   61;
  43F   :   61;
  440   :   61;
  441   :   61;
  442   :   61;
  443   :   61;
  444   :   61;
  445   :   61;
  446   :   61;
  447   :   61;
  448   :   61;
  449   :   61;
  44A   :   61;
  44B   :   61;
  44C   :   61;
  44D   :   61;
  44E   :   61;
  44F   :   61;
  450   :   61;
  451   :   61;
  452   :   61;
  453   :   61;
  454   :   61;
  455   :   61;
  456   :   61;
  457   :   61;
  458   :   61;
  459   :   61;
  45A   :   61;
  45B   :   61;
  45C   :   61;
  45D   :   61;
  45E   :   61;
  45F   :   61;
  460   :   61;
  461   :   61;
  462   :   61;
  463   :   61;
  464   :   61;
  465   :   61;
  466   :   61;
  467   :   61;
  468   :   61;
  469   :   61;
  46A   :   61;
  46B   :   61;
  46C   :   61;
  46D   :   61;
  46E   :   61;
  46F   :   61;
  470   :   61;
  471   :   61;
  472   :   61;
  473   :   61;
  474   :   61;
  475   :   61;
  476   :   61;
  477   :   61;
  478   :   61;
  479   :   61;
  47A   :   61;
  47B   :   61;
  47C   :   61;
  47D   :   61;
  47E   :   61;
  47F   :   61;
  480   :   61;
  481   :   61;
  482   :   61;
  483   :   61;
  484   :   61;
  485   :   61;
  486   :   61;
  487   :   61;
  488   :   61;
  489   :   61;
  48A   :   61;
  48B   :   61;
  48C   :   61;
  48D   :   61;
  48E   :   61;
  48F   :   61;
  490   :   61;
  491   :   61;
  492   :   61;
  493   :   61;
  494   :   61;
  495   :   61;
  496   :   61;
  497   :   61;
  498   :   61;
  499   :   61;
  49A   :   61;
  49B   :   61;
  49C   :   61;
  49D   :   61;
  49E   :   61;
  49F   :   61;
  4A0   :   61;
  4A1   :   61;
  4A2   :   61;
  4A3   :   61;
  4A4   :   61;
  4A5   :   61;
  4A6   :   61;
  4A7   :   61;
  4A8   :   61;
  4A9   :   61;
  4AA   :   61;
  4AB   :   61;
  4AC   :   61;
  4AD   :   61;
  4AE   :   61;
  4AF   :   61;
  4B0   :   61;
  4B1   :   61;
  4B2   :   61;
  4B3   :   61;
  4B4   :   61;
  4B5   :   61;
  4B6   :   61;
  4B7   :   61;
  4B8   :   61;
  4B9   :   61;
  4BA   :   61;
  4BB   :   61;
  4BC   :   61;
  4BD   :   61;
  4BE   :   61;
  4BF   :   61;
  4C0   :   61;
  4C1   :   61;
  4C2   :   61;
  4C3   :   61;
  4C4   :   61;
  4C5   :   61;
  4C6   :   61;
  4C7   :   61;
  4C8   :   61;
  4C9   :   61;
  4CA   :   61;
  4CB   :   61;
  4CC   :   61;
  4CD   :   61;
  4CE   :   61;
  4CF   :   61;
  4D0   :   61;
  4D1   :   61;
  4D2   :   61;
  4D3   :   61;
  4D4   :   61;
  4D5   :   61;
  4D6   :   61;
  4D7   :   61;
  4D8   :   61;
  4D9   :   61;
  4DA   :   61;
  4DB   :   61;
  4DC   :   61;
  4DD   :   61;
  4DE   :   61;
  4DF   :   61;
  4E0   :   61;
  4E1   :   61;
  4E2   :   61;
  4E3   :   61;
  4E4   :   61;
  4E5   :   61;
  4E6   :   61;
  4E7   :   61;
  4E8   :   61;
  4E9   :   61;
  4EA   :   61;
  4EB   :   61;
  4EC   :   61;
  4ED   :   61;
  4EE   :   61;
  4EF   :   61;
  4F0   :   61;
  4F1   :   61;
  4F2   :   61;
  4F3   :   61;
  4F4   :   61;
  4F5   :   61;
  4F6   :   61;
  4F7   :   61;
  4F8   :   61;
  4F9   :   61;
  4FA   :   61;
  4FB   :   61;
  4FC   :   61;
  4FD   :   61;
  4FE   :   61;
  4FF   :   61;
  500   :   61;
  501   :   61;
  502   :   61;
  503   :   61;
  504   :   61;
  505   :   61;
  506   :   61;
  507   :   61;
  508   :   61;
  509   :   61;
  50A   :   61;
  50B   :   61;
  50C   :   61;
  50D   :   61;
  50E   :   61;
  50F   :   61;
  510   :   61;
  511   :   61;
  512   :   61;
  513   :   61;
  514   :   61;
  515   :   61;
  516   :   61;
  517   :   61;
  518   :   61;
  519   :   61;
  51A   :   61;
  51B   :   61;
  51C   :   61;
  51D   :   61;
  51E   :   61;
  51F   :   61;
  520   :   61;
  521   :   61;
  522   :   61;
  523   :   61;
  524   :   61;
  525   :   61;
  526   :   61;
  527   :   61;
  528   :   61;
  529   :   61;
  52A   :   61;
  52B   :   61;
  52C   :   61;
  52D   :   61;
  52E   :   61;
  52F   :   61;
  530   :   61;
  531   :   61;
  532   :   61;
  533   :   61;
  534   :   61;
  535   :   61;
  536   :   61;
  537   :   61;
  538   :   61;
  539   :   61;
  53A   :   61;
  53B   :   61;
  53C   :   61;
  53D   :   61;
  53E   :   61;
  53F   :   61;
  540   :   61;
  541   :   61;
  542   :   61;
  543   :   61;
  544   :   61;
  545   :   61;
  546   :   61;
  547   :   61;
  548   :   61;
  549   :   61;
  54A   :   61;
  54B   :   61;
  54C   :   61;
  54D   :   61;
  54E   :   61;
  54F   :   61;
  550   :   61;
  551   :   61;
  552   :   61;
  553   :   61;
  554   :   61;
  555   :   61;
  556   :   61;
  557   :   61;
  558   :   61;
  559   :   61;
  55A   :   61;
  55B   :   61;
  55C   :   61;
  55D   :   61;
  55E   :   61;
  55F   :   61;
  560   :   61;
  561   :   61;
  562   :   61;
  563   :   61;
  564   :   61;
  565   :   61;
  566   :   61;
  567   :   61;
  568   :   61;
  569   :   61;
  56A   :   61;
  56B   :   61;
  56C   :   61;
  56D   :   61;
  56E   :   61;
  56F   :   61;
  570   :   61;
  571   :   61;
  572   :   61;
  573   :   61;
  574   :   61;
  575   :   61;
  576   :   61;
  577   :   61;
  578   :   61;
  579   :   61;
  57A   :   61;
  57B   :   61;
  57C   :   61;
  57D   :   61;
  57E   :   61;
  57F   :   61;
  580   :   61;
  581   :   61;
  582   :   61;
  583   :   61;
  584   :   61;
  585   :   61;
  586   :   61;
  587   :   61;
  588   :   61;
  589   :   61;
  58A   :   61;
  58B   :   61;
  58C   :   61;
  58D   :   61;
  58E   :   61;
  58F   :   61;
  590   :   61;
  591   :   61;
  592   :   61;
  593   :   61;
  594   :   61;
  595   :   61;
  596   :   61;
  597   :   61;
  598   :   61;
  599   :   61;
  59A   :   61;
  59B   :   61;
  59C   :   61;
  59D   :   61;
  59E   :   61;
  59F   :   61;
  5A0   :   61;
  5A1   :   61;
  5A2   :   61;
  5A3   :   61;
  5A4   :   61;
  5A5   :   61;
  5A6   :   61;
  5A7   :   61;
  5A8   :   61;
  5A9   :   61;
  5AA   :   61;
  5AB   :   61;
  5AC   :   61;
  5AD   :   61;
  5AE   :   61;
  5AF   :   61;
  5B0   :   61;
  5B1   :   61;
  5B2   :   61;
  5B3   :   61;
  5B4   :   61;
  5B5   :   61;
  5B6   :   61;
  5B7   :   61;
  5B8   :   61;
  5B9   :   61;
  5BA   :   61;
  5BB   :   61;
  5BC   :   61;
  5BD   :   61;
  5BE   :   61;
  5BF   :   61;
  5C0   :   61;
  5C1   :   61;
  5C2   :   61;
  5C3   :   61;
  5C4   :   61;
  5C5   :   61;
  5C6   :   61;
  5C7   :   61;
  5C8   :   61;
  5C9   :   61;
  5CA   :   61;
  5CB   :   61;
  5CC   :   61;
  5CD   :   61;
  5CE   :   61;
  5CF   :   61;
  5D0   :   61;
  5D1   :   61;
  5D2   :   61;
  5D3   :   61;
  5D4   :   61;
  5D5   :   61;
  5D6   :   61;
  5D7   :   61;
  5D8   :   61;
  5D9   :   61;
  5DA   :   61;
  5DB   :   61;
  5DC   :   61;
  5DD   :   61;
  5DE   :   61;
  5DF   :   61;
  5E0   :   61;
  5E1   :   61;
  5E2   :   61;
  5E3   :   61;
  5E4   :   61;
  5E5   :   61;
  5E6   :   61;
  5E7   :   61;
  5E8   :   61;
  5E9   :   61;
  5EA   :   61;
  5EB   :   61;
  5EC   :   61;
  5ED   :   61;
  5EE   :   61;
  5EF   :   61;
  5F0   :   61;
  5F1   :   61;
  5F2   :   61;
  5F3   :   61;
  5F4   :   61;
  5F5   :   61;
  5F6   :   61;
  5F7   :   61;
  5F8   :   61;
  5F9   :   61;
  5FA   :   61;
  5FB   :   61;
  5FC   :   61;
  5FD   :   61;
  5FE   :   61;
  5FF   :   61;
  600   :   61;
  601   :   61;
  602   :   61;
  603   :   61;
  604   :   61;
  605   :   61;
  606   :   61;
  607   :   61;
  608   :   61;
  609   :   61;
  60A   :   61;
  60B   :   61;
  60C   :   61;
  60D   :   61;
  60E   :   61;
  60F   :   61;
  610   :   61;
  611   :   61;
  612   :   61;
  613   :   61;
  614   :   61;
  615   :   61;
  616   :   61;
  617   :   61;
  618   :   61;
  619   :   61;
  61A   :   61;
  61B   :   61;
  61C   :   61;
  61D   :   61;
  61E   :   61;
  61F   :   61;
  620   :   61;
  621   :   61;
  622   :   61;
  623   :   61;
  624   :   61;
  625   :   61;
  626   :   61;
  627   :   61;
  628   :   61;
  629   :   61;
  62A   :   61;
  62B   :   61;
  62C   :   61;
  62D   :   61;
  62E   :   61;
  62F   :   61;
  630   :   61;
  631   :   61;
  632   :   61;
  633   :   61;
  634   :   61;
  635   :   61;
  636   :   61;
  637   :   61;
  638   :   61;
  639   :   61;
  63A   :   61;
  63B   :   61;
  63C   :   61;
  63D   :   61;
  63E   :   61;
  63F   :   61;
  640   :   61;
  641   :   61;
  642   :   61;
  643   :   61;
  644   :   61;
  645   :   61;
  646   :   61;
  647   :   61;
  648   :   61;
  649   :   61;
  64A   :   61;
  64B   :   61;
  64C   :   61;
  64D   :   61;
  64E   :   61;
  64F   :   61;
  650   :   61;
  651   :   61;
  652   :   61;
  653   :   61;
  654   :   61;
  655   :   61;
  656   :   61;
  657   :   61;
  658   :   61;
  659   :   61;
  65A   :   61;
  65B   :   61;
  65C   :   61;
  65D   :   61;
  65E   :   61;
  65F   :   61;
  660   :   61;
  661   :   61;
  662   :   61;
  663   :   61;
  664   :   61;
  665   :   61;
  666   :   61;
  667   :   61;
  668   :   61;
  669   :   61;
  66A   :   61;
  66B   :   61;
  66C   :   61;
  66D   :   61;
  66E   :   61;
  66F   :   61;
  670   :   61;
  671   :   61;
  672   :   61;
  673   :   61;
  674   :   61;
  675   :   61;
  676   :   61;
  677   :   61;
  678   :   61;
  679   :   61;
  67A   :   61;
  67B   :   61;
  67C   :   61;
  67D   :   61;
  67E   :   61;
  67F   :   61;
  680   :   61;
  681   :   61;
  682   :   61;
  683   :   61;
  684   :   61;
  685   :   61;
  686   :   61;
  687   :   61;
  688   :   61;
  689   :   61;
  68A   :   61;
  68B   :   61;
  68C   :   61;
  68D   :   61;
  68E   :   61;
  68F   :   61;
  690   :   61;
  691   :   61;
  692   :   61;
  693   :   61;
  694   :   61;
  695   :   61;
  696   :   61;
  697   :   61;
  698   :   61;
  699   :   61;
  69A   :   61;
  69B   :   61;
  69C   :   61;
  69D   :   61;
  69E   :   61;
  69F   :   61;
  6A0   :   61;
  6A1   :   61;
  6A2   :   61;
  6A3   :   61;
  6A4   :   61;
  6A5   :   61;
  6A6   :   61;
  6A7   :   61;
  6A8   :   61;
  6A9   :   61;
  6AA   :   61;
  6AB   :   61;
  6AC   :   61;
  6AD   :   61;
  6AE   :   61;
  6AF   :   61;
  6B0   :   61;
  6B1   :   61;
  6B2   :   61;
  6B3   :   61;
  6B4   :   61;
  6B5   :   61;
  6B6   :   61;
  6B7   :   61;
  6B8   :   61;
  6B9   :   61;
  6BA   :   61;
  6BB   :   61;
  6BC   :   61;
  6BD   :   61;
  6BE   :   61;
  6BF   :   61;
  6C0   :   61;
  6C1   :   61;
  6C2   :   61;
  6C3   :   61;
  6C4   :   61;
  6C5   :   61;
  6C6   :   61;
  6C7   :   61;
  6C8   :   61;
  6C9   :   61;
  6CA   :   61;
  6CB   :   61;
  6CC   :   61;
  6CD   :   61;
  6CE   :   61;
  6CF   :   61;
  6D0   :   61;
  6D1   :   61;
  6D2   :   61;
  6D3   :   61;
  6D4   :   61;
  6D5   :   61;
  6D6   :   61;
  6D7   :   61;
  6D8   :   61;
  6D9   :   61;
  6DA   :   61;
  6DB   :   61;
  6DC   :   61;
  6DD   :   61;
  6DE   :   61;
  6DF   :   61;
  6E0   :   61;
  6E1   :   61;
  6E2   :   61;
  6E3   :   61;
  6E4   :   61;
  6E5   :   61;
  6E6   :   61;
  6E7   :   61;
  6E8   :   61;
  6E9   :   61;
  6EA   :   61;
  6EB   :   61;
  6EC   :   61;
  6ED   :   61;
  6EE   :   61;
  6EF   :   61;
  6F0   :   61;
  6F1   :   61;
  6F2   :   61;
  6F3   :   61;
  6F4   :   61;
  6F5   :   61;
  6F6   :   61;
  6F7   :   61;
  6F8   :   61;
  6F9   :   61;
  6FA   :   61;
  6FB   :   61;
  6FC   :   61;
  6FD   :   61;
  6FE   :   61;
  6FF   :   61;
  700   :   61;
  701   :   61;
  702   :   61;
  703   :   61;
  704   :   61;
  705   :   61;
  706   :   61;
  707   :   61;
  708   :   61;
  709   :   61;
  70A   :   61;
  70B   :   61;
  70C   :   61;
  70D   :   61;
  70E   :   61;
  70F   :   61;
  710   :   61;
  711   :   61;
  712   :   61;
  713   :   61;
  714   :   61;
  715   :   61;
  716   :   61;
  717   :   61;
  718   :   61;
  719   :   61;
  71A   :   61;
  71B   :   61;
  71C   :   61;
  71D   :   61;
  71E   :   61;
  71F   :   61;
  720   :   61;
  721   :   61;
  722   :   61;
  723   :   61;
  724   :   61;
  725   :   61;
  726   :   61;
  727   :   61;
  728   :   61;
  729   :   61;
  72A   :   61;
  72B   :   61;
  72C   :   61;
  72D   :   61;
  72E   :   61;
  72F   :   61;
  730   :   61;
  731   :   61;
  732   :   61;
  733   :   61;
  734   :   61;
  735   :   61;
  736   :   61;
  737   :   61;
  738   :   61;
  739   :   61;
  73A   :   61;
  73B   :   61;
  73C   :   61;
  73D   :   61;
  73E   :   61;
  73F   :   61;
  740   :   61;
  741   :   61;
  742   :   61;
  743   :   61;
  744   :   61;
  745   :   61;
  746   :   61;
  747   :   61;
  748   :   61;
  749   :   61;
  74A   :   61;
  74B   :   61;
  74C   :   61;
  74D   :   61;
  74E   :   61;
  74F   :   61;
  750   :   61;
  751   :   61;
  752   :   61;
  753   :   61;
  754   :   61;
  755   :   61;
  756   :   61;
  757   :   61;
  758   :   61;
  759   :   61;
  75A   :   61;
  75B   :   61;
  75C   :   61;
  75D   :   61;
  75E   :   61;
  75F   :   61;
  760   :   61;
  761   :   61;
  762   :   61;
  763   :   61;
  764   :   61;
  765   :   61;
  766   :   61;
  767   :   61;
  768   :   61;
  769   :   61;
  76A   :   61;
  76B   :   61;
  76C   :   61;
  76D   :   61;
  76E   :   61;
  76F   :   61;
  770   :   61;
  771   :   61;
  772   :   61;
  773   :   61;
  774   :   61;
  775   :   61;
  776   :   61;
  777   :   61;
  778   :   61;
  779   :   61;
  77A   :   61;
  77B   :   61;
  77C   :   61;
  77D   :   61;
  77E   :   61;
  77F   :   61;
  780   :   61;
  781   :   61;
  782   :   61;
  783   :   61;
  784   :   61;
  785   :   61;
  786   :   61;
  787   :   61;
  788   :   61;
  789   :   61;
  78A   :   61;
  78B   :   61;
  78C   :   61;
  78D   :   61;
  78E   :   61;
  78F   :   61;
  790   :   61;
  791   :   61;
  792   :   61;
  793   :   61;
  794   :   61;
  795   :   61;
  796   :   61;
  797   :   61;
  798   :   61;
  799   :   61;
  79A   :   61;
  79B   :   61;
  79C   :   61;
  79D   :   61;
  79E   :   61;
  79F   :   61;
  7A0   :   61;
  7A1   :   61;
  7A2   :   61;
  7A3   :   61;
  7A4   :   61;
  7A5   :   61;
  7A6   :   61;
  7A7   :   61;
  7A8   :   61;
  7A9   :   61;
  7AA   :   61;
  7AB   :   61;
  7AC   :   61;
  7AD   :   61;
  7AE   :   61;
  7AF   :   61;
  7B0   :   61;
  7B1   :   61;
  7B2   :   61;
  7B3   :   61;
  7B4   :   61;
  7B5   :   61;
  7B6   :   61;
  7B7   :   61;
  7B8   :   61;
  7B9   :   61;
  7BA   :   61;
  7BB   :   61;
  7BC   :   61;
  7BD   :   61;
  7BE   :   61;
  7BF   :   61;
  7C0   :   61;
  7C1   :   61;
  7C2   :   61;
  7C3   :   61;
  7C4   :   61;
  7C5   :   61;
  7C6   :   61;
  7C7   :   61;
  7C8   :   61;
  7C9   :   61;
  7CA   :   61;
  7CB   :   61;
  7CC   :   61;
  7CD   :   61;
  7CE   :   61;
  7CF   :   61;
  7D0   :   61;
  7D1   :   61;
  7D2   :   61;
  7D3   :   61;
  7D4   :   61;
  7D5   :   61;
  7D6   :   61;
  7D7   :   61;
  7D8   :   61;
  7D9   :   61;
  7DA   :   61;
  7DB   :   61;
  7DC   :   61;
  7DD   :   61;
  7DE   :   61;
  7DF   :   61;
  7E0   :   61;
  7E1   :   61;
  7E2   :   61;
  7E3   :   61;
  7E4   :   61;
  7E5   :   61;
  7E6   :   61;
  7E7   :   61;
  7E8   :   61;
  7E9   :   61;
  7EA   :   61;
  7EB   :   61;
  7EC   :   61;
  7ED   :   61;
  7EE   :   61;
  7EF   :   61;
  7F0   :   61;
  7F1   :   61;
  7F2   :   61;
  7F3   :   61;
  7F4   :   61;
  7F5   :   61;
  7F6   :   61;
  7F7   :   61;
  7F8   :   61;
  7F9   :   61;
  7FA   :   61;
  7FB   :   61;
  7FC   :   61;
  7FD   :   61;
  7FE   :   61;
  7FF   :   61;
  800   :   61;
  801   :   61;
  802   :   61;
  803   :   61;
  804   :   61;
  805   :   61;
  806   :   61;
  807   :   61;
  808   :   61;
  809   :   61;
  80A   :   61;
  80B   :   61;
  80C   :   61;
  80D   :   61;
  80E   :   61;
  80F   :   61;
  810   :   61;
  811   :   61;
  812   :   61;
  813   :   61;
  814   :   61;
  815   :   61;
  816   :   61;
  817   :   61;
  818   :   61;
  819   :   61;
  81A   :   61;
  81B   :   61;
  81C   :   61;
  81D   :   61;
  81E   :   61;
  81F   :   61;
  820   :   61;
  821   :   61;
  822   :   61;
  823   :   61;
  824   :   61;
  825   :   61;
  826   :   61;
  827   :   61;
  828   :   61;
  829   :   61;
  82A   :   61;
  82B   :   61;
  82C   :   61;
  82D   :   61;
  82E   :   61;
  82F   :   61;
  830   :   61;
  831   :   61;
  832   :   61;
  833   :   61;
  834   :   61;
  835   :   61;
  836   :   61;
  837   :   61;
  838   :   61;
  839   :   61;
  83A   :   61;
  83B   :   61;
  83C   :   61;
  83D   :   61;
  83E   :   61;
  83F   :   61;
  840   :   61;
  841   :   61;
  842   :   61;
  843   :   61;
  844   :   61;
  845   :   61;
  846   :   61;
  847   :   61;
  848   :   61;
  849   :   61;
  84A   :   61;
  84B   :   61;
  84C   :   61;
  84D   :   61;
  84E   :   61;
  84F   :   61;
  850   :   61;
  851   :   61;
  852   :   61;
  853   :   61;
  854   :   61;
  855   :   61;
  856   :   61;
  857   :   61;
  858   :   61;
  859   :   61;
  85A   :   61;
  85B   :   61;
  85C   :   61;
  85D   :   61;
  85E   :   61;
  85F   :   61;
  860   :   61;
  861   :   61;
  862   :   61;
  863   :   61;
  864   :   61;
  865   :   61;
  866   :   61;
  867   :   61;
  868   :   61;
  869   :   61;
  86A   :   61;
  86B   :   61;
  86C   :   61;
  86D   :   61;
  86E   :   61;
  86F   :   61;
  870   :   61;
  871   :   61;
  872   :   61;
  873   :   61;
  874   :   61;
  875   :   61;
  876   :   61;
  877   :   61;
  878   :   61;
  879   :   61;
  87A   :   61;
  87B   :   61;
  87C   :   61;
  87D   :   61;
  87E   :   61;
  87F   :   61;
  880   :   61;
  881   :   61;
  882   :   61;
  883   :   61;
  884   :   61;
  885   :   61;
  886   :   61;
  887   :   61;
  888   :   61;
  889   :   61;
  88A   :   61;
  88B   :   61;
  88C   :   61;
  88D   :   61;
  88E   :   61;
  88F   :   61;
  890   :   61;
  891   :   61;
  892   :   61;
  893   :   61;
  894   :   61;
  895   :   61;
  896   :   61;
  897   :   61;
  898   :   61;
  899   :   61;
  89A   :   61;
  89B   :   61;
  89C   :   61;
  89D   :   61;
  89E   :   61;
  89F   :   61;
  8A0   :   61;
  8A1   :   61;
  8A2   :   61;
  8A3   :   61;
  8A4   :   61;
  8A5   :   61;
  8A6   :   61;
  8A7   :   61;
  8A8   :   61;
  8A9   :   61;
  8AA   :   61;
  8AB   :   61;
  8AC   :   61;
  8AD   :   61;
  8AE   :   61;
  8AF   :   61;
  8B0   :   61;
  8B1   :   61;
  8B2   :   61;
  8B3   :   61;
  8B4   :   61;
  8B5   :   61;
  8B6   :   61;
  8B7   :   61;
  8B8   :   61;
  8B9   :   61;
  8BA   :   61;
  8BB   :   61;
  8BC   :   61;
  8BD   :   61;
  8BE   :   61;
  8BF   :   61;
  8C0   :   61;
  8C1   :   61;
  8C2   :   61;
  8C3   :   61;
  8C4   :   61;
  8C5   :   61;
  8C6   :   61;
  8C7   :   61;
  8C8   :   61;
  8C9   :   61;
  8CA   :   61;
  8CB   :   61;
  8CC   :   61;
  8CD   :   61;
  8CE   :   61;
  8CF   :   61;
  8D0   :   61;
  8D1   :   61;
  8D2   :   61;
  8D3   :   61;
  8D4   :   61;
  8D5   :   61;
  8D6   :   61;
  8D7   :   61;
  8D8   :   61;
  8D9   :   61;
  8DA   :   61;
  8DB   :   61;
  8DC   :   61;
  8DD   :   61;
  8DE   :   61;
  8DF   :   61;
  8E0   :   61;
  8E1   :   61;
  8E2   :   61;
  8E3   :   61;
  8E4   :   61;
  8E5   :   61;
  8E6   :   61;
  8E7   :   61;
  8E8   :   61;
  8E9   :   61;
  8EA   :   61;
  8EB   :   61;
  8EC   :   61;
  8ED   :   61;
  8EE   :   61;
  8EF   :   61;
  8F0   :   61;
  8F1   :   61;
  8F2   :   61;
  8F3   :   61;
  8F4   :   61;
  8F5   :   61;
  8F6   :   61;
  8F7   :   61;
  8F8   :   61;
  8F9   :   61;
  8FA   :   61;
  8FB   :   61;
  8FC   :   61;
  8FD   :   61;
  8FE   :   61;
  8FF   :   61;
  900   :   61;
  901   :   61;
  902   :   61;
  903   :   61;
  904   :   61;
  905   :   61;
  906   :   61;
  907   :   61;
  908   :   61;
  909   :   61;
  90A   :   61;
  90B   :   61;
  90C   :   61;
  90D   :   61;
  90E   :   61;
  90F   :   61;
  910   :   61;
  911   :   61;
  912   :   61;
  913   :   61;
  914   :   61;
  915   :   61;
  916   :   61;
  917   :   61;
  918   :   61;
  919   :   61;
  91A   :   61;
  91B   :   61;
  91C   :   61;
  91D   :   61;
  91E   :   61;
  91F   :   61;
  920   :   61;
  921   :   61;
  922   :   61;
  923   :   61;
  924   :   61;
  925   :   61;
  926   :   61;
  927   :   61;
  928   :   61;
  929   :   61;
  92A   :   61;
  92B   :   61;
  92C   :   61;
  92D   :   61;
  92E   :   61;
  92F   :   61;
  930   :   61;
  931   :   61;
  932   :   61;
  933   :   61;
  934   :   61;
  935   :   61;
  936   :   61;
  937   :   61;
  938   :   61;
  939   :   61;
  93A   :   61;
  93B   :   61;
  93C   :   61;
  93D   :   61;
  93E   :   61;
  93F   :   61;
  940   :   61;
  941   :   61;
  942   :   61;
  943   :   61;
  944   :   61;
  945   :   61;
  946   :   61;
  947   :   61;
  948   :   61;
  949   :   61;
  94A   :   61;
  94B   :   61;
  94C   :   61;
  94D   :   61;
  94E   :   61;
  94F   :   61;
  950   :   61;
  951   :   61;
  952   :   61;
  953   :   61;
  954   :   61;
  955   :   61;
  956   :   61;
  957   :   61;
  958   :   61;
  959   :   61;
  95A   :   61;
  95B   :   61;
  95C   :   61;
  95D   :   61;
  95E   :   61;
  95F   :   61;
  960   :   61;
  961   :   61;
  962   :   61;
  963   :   61;
  964   :   61;
  965   :   61;
  966   :   61;
  967   :   61;
  968   :   61;
  969   :   61;
  96A   :   61;
  96B   :   61;
  96C   :   61;
  96D   :   61;
  96E   :   61;
  96F   :   61;
  970   :   61;
  971   :   61;
  972   :   61;
  973   :   61;
  974   :   61;
  975   :   61;
  976   :   61;
  977   :   61;
  978   :   61;
  979   :   61;
  97A   :   61;
  97B   :   61;
  97C   :   61;
  97D   :   61;
  97E   :   61;
  97F   :   61;
  980   :   61;
  981   :   61;
  982   :   61;
  983   :   61;
  984   :   61;
  985   :   61;
  986   :   61;
  987   :   61;
  988   :   61;
  989   :   61;
  98A   :   61;
  98B   :   61;
  98C   :   61;
  98D   :   61;
  98E   :   61;
  98F   :   61;
  990   :   61;
  991   :   61;
  992   :   61;
  993   :   61;
  994   :   61;
  995   :   61;
  996   :   61;
  997   :   61;
  998   :   61;
  999   :   61;
  99A   :   61;
  99B   :   61;
  99C   :   61;
  99D   :   61;
  99E   :   61;
  99F   :   61;
  9A0   :   61;
  9A1   :   61;
  9A2   :   61;
  9A3   :   61;
  9A4   :   61;
  9A5   :   61;
  9A6   :   61;
  9A7   :   61;
  9A8   :   61;
  9A9   :   61;
  9AA   :   61;
  9AB   :   61;
  9AC   :   61;
  9AD   :   61;
  9AE   :   61;
  9AF   :   61;
  9B0   :   61;
  9B1   :   61;
  9B2   :   61;
  9B3   :   61;
  9B4   :   61;
  9B5   :   61;
  9B6   :   61;
  9B7   :   61;
  9B8   :   61;
  9B9   :   61;
  9BA   :   61;
  9BB   :   61;
  9BC   :   61;
  9BD   :   61;
  9BE   :   61;
  9BF   :   61;
  9C0   :   61;
  9C1   :   61;
  9C2   :   61;
  9C3   :   61;
  9C4   :   61;
  9C5   :   61;
  9C6   :   61;
  9C7   :   61;
  9C8   :   61;
  9C9   :   61;
  9CA   :   61;
  9CB   :   61;
  9CC   :   61;
  9CD   :   61;
  9CE   :   61;
  9CF   :   61;
  9D0   :   61;
  9D1   :   61;
  9D2   :   61;
  9D3   :   61;
  9D4   :   61;
  9D5   :   61;
  9D6   :   61;
  9D7   :   61;
  9D8   :   61;
  9D9   :   61;
  9DA   :   61;
  9DB   :   61;
  9DC   :   61;
  9DD   :   61;
  9DE   :   61;
  9DF   :   61;
  9E0   :   61;
  9E1   :   61;
  9E2   :   61;
  9E3   :   61;
  9E4   :   61;
  9E5   :   61;
  9E6   :   61;
  9E7   :   61;
  9E8   :   61;
  9E9   :   61;
  9EA   :   61;
  9EB   :   61;
  9EC   :   61;
  9ED   :   61;
  9EE   :   61;
  9EF   :   61;
  9F0   :   61;
  9F1   :   61;
  9F2   :   61;
  9F3   :   61;
  9F4   :   61;
  9F5   :   61;
  9F6   :   61;
  9F7   :   61;
  9F8   :   61;
  9F9   :   61;
  9FA   :   61;
  9FB   :   61;
  9FC   :   61;
  9FD   :   61;
  9FE   :   61;
  9FF   :   61;
  A00   :   61;
  A01   :   61;
  A02   :   61;
  A03   :   61;
  A04   :   61;
  A05   :   61;
  A06   :   61;
  A07   :   61;
  A08   :   61;
  A09   :   61;
  A0A   :   61;
  A0B   :   61;
  A0C   :   61;
  A0D   :   61;
  A0E   :   61;
  A0F   :   61;
  A10   :   61;
  A11   :   61;
  A12   :   61;
  A13   :   61;
  A14   :   61;
  A15   :   61;
  A16   :   61;
  A17   :   61;
  A18   :   61;
  A19   :   61;
  A1A   :   61;
  A1B   :   61;
  A1C   :   61;
  A1D   :   61;
  A1E   :   61;
  A1F   :   61;
  A20   :   61;
  A21   :   61;
  A22   :   61;
  A23   :   61;
  A24   :   61;
  A25   :   61;
  A26   :   61;
  A27   :   61;
  A28   :   61;
  A29   :   61;
  A2A   :   61;
  A2B   :   61;
  A2C   :   61;
  A2D   :   61;
  A2E   :   61;
  A2F   :   61;
  A30   :   61;
  A31   :   61;
  A32   :   61;
  A33   :   61;
  A34   :   61;
  A35   :   61;
  A36   :   61;
  A37   :   61;
  A38   :   61;
  A39   :   61;
  A3A   :   61;
  A3B   :   61;
  A3C   :   61;
  A3D   :   61;
  A3E   :   61;
  A3F   :   61;
  A40   :   61;
  A41   :   61;
  A42   :   61;
  A43   :   61;
  A44   :   61;
  A45   :   61;
  A46   :   61;
  A47   :   61;
  A48   :   61;
  A49   :   61;
  A4A   :   61;
  A4B   :   61;
  A4C   :   61;
  A4D   :   61;
  A4E   :   61;
  A4F   :   61;
  A50   :   61;
  A51   :   61;
  A52   :   61;
  A53   :   61;
  A54   :   61;
  A55   :   61;
  A56   :   61;
  A57   :   61;
  A58   :   61;
  A59   :   61;
  A5A   :   61;
  A5B   :   61;
  A5C   :   61;
  A5D   :   61;
  A5E   :   61;
  A5F   :   61;
  A60   :   61;
  A61   :   61;
  A62   :   61;
  A63   :   61;
  A64   :   61;
  A65   :   61;
  A66   :   61;
  A67   :   61;
  A68   :   61;
  A69   :   61;
  A6A   :   61;
  A6B   :   61;
  A6C   :   61;
  A6D   :   61;
  A6E   :   61;
  A6F   :   61;
  A70   :   61;
  A71   :   61;
  A72   :   61;
  A73   :   61;
  A74   :   61;
  A75   :   61;
  A76   :   61;
  A77   :   61;
  A78   :   61;
  A79   :   61;
  A7A   :   61;
  A7B   :   61;
  A7C   :   61;
  A7D   :   61;
  A7E   :   61;
  A7F   :   61;
  A80   :   61;
  A81   :   61;
  A82   :   61;
  A83   :   61;
  A84   :   61;
  A85   :   61;
  A86   :   61;
  A87   :   61;
  A88   :   61;
  A89   :   61;
  A8A   :   61;
  A8B   :   61;
  A8C   :   61;
  A8D   :   61;
  A8E   :   61;
  A8F   :   61;
  A90   :   61;
  A91   :   61;
  A92   :   61;
  A93   :   61;
  A94   :   61;
  A95   :   61;
  A96   :   61;
  A97   :   61;
  A98   :   61;
  A99   :   61;
  A9A   :   61;
  A9B   :   61;
  A9C   :   61;
  A9D   :   61;
  A9E   :   61;
  A9F   :   61;
  AA0   :   61;
  AA1   :   61;
  AA2   :   61;
  AA3   :   61;
  AA4   :   61;
  AA5   :   61;
  AA6   :   61;
  AA7   :   61;
  AA8   :   61;
  AA9   :   61;
  AAA   :   61;
  AAB   :   61;
  AAC   :   61;
  AAD   :   61;
  AAE   :   61;
  AAF   :   61;
  AB0   :   61;
  AB1   :   61;
  AB2   :   61;
  AB3   :   61;
  AB4   :   61;
  AB5   :   61;
  AB6   :   61;
  AB7   :   61;
  AB8   :   61;
  AB9   :   61;
  ABA   :   61;
  ABB   :   61;
  ABC   :   61;
  ABD   :   61;
  ABE   :   61;
  ABF   :   61;
  AC0   :   61;
  AC1   :   61;
  AC2   :   61;
  AC3   :   61;
  AC4   :   61;
  AC5   :   61;
  AC6   :   61;
  AC7   :   61;
  AC8   :   61;
  AC9   :   61;
  ACA   :   61;
  ACB   :   61;
  ACC   :   61;
  ACD   :   61;
  ACE   :   61;
  ACF   :   61;
  AD0   :   61;
  AD1   :   61;
  AD2   :   61;
  AD3   :   61;
  AD4   :   61;
  AD5   :   61;
  AD6   :   61;
  AD7   :   61;
  AD8   :   61;
  AD9   :   61;
  ADA   :   61;
  ADB   :   61;
  ADC   :   61;
  ADD   :   61;
  ADE   :   61;
  ADF   :   61;
  AE0   :   61;
  AE1   :   61;
  AE2   :   61;
  AE3   :   61;
  AE4   :   61;
  AE5   :   61;
  AE6   :   61;
  AE7   :   61;
  AE8   :   61;
  AE9   :   61;
  AEA   :   61;
  AEB   :   61;
  AEC   :   61;
  AED   :   61;
  AEE   :   61;
  AEF   :   61;
  AF0   :   61;
  AF1   :   61;
  AF2   :   61;
  AF3   :   61;
  AF4   :   61;
  AF5   :   61;
  AF6   :   61;
  AF7   :   61;
  AF8   :   61;
  AF9   :   61;
  AFA   :   61;
  AFB   :   61;
  AFC   :   61;
  AFD   :   61;
  AFE   :   61;
  AFF   :   61;
  B00   :   61;
  B01   :   61;
  B02   :   61;
  B03   :   61;
  B04   :   61;
  B05   :   61;
  B06   :   61;
  B07   :   61;
  B08   :   61;
  B09   :   61;
  B0A   :   61;
  B0B   :   61;
  B0C   :   61;
  B0D   :   61;
  B0E   :   61;
  B0F   :   61;
  B10   :   61;
  B11   :   61;
  B12   :   61;
  B13   :   61;
  B14   :   61;
  B15   :   61;
  B16   :   61;
  B17   :   61;
  B18   :   61;
  B19   :   61;
  B1A   :   61;
  B1B   :   61;
  B1C   :   61;
  B1D   :   61;
  B1E   :   61;
  B1F   :   61;
  B20   :   61;
  B21   :   61;
  B22   :   61;
  B23   :   61;
  B24   :   61;
  B25   :   61;
  B26   :   61;
  B27   :   61;
  B28   :   61;
  B29   :   61;
  B2A   :   61;
  B2B   :   61;
  B2C   :   61;
  B2D   :   61;
  B2E   :   61;
  B2F   :   61;
  B30   :   61;
  B31   :   61;
  B32   :   61;
  B33   :   61;
  B34   :   61;
  B35   :   61;
  B36   :   61;
  B37   :   61;
  B38   :   61;
  B39   :   61;
  B3A   :   61;
  B3B   :   61;
  B3C   :   61;
  B3D   :   61;
  B3E   :   61;
  B3F   :   61;
  B40   :   61;
  B41   :   61;
  B42   :   61;
  B43   :   61;
  B44   :   61;
  B45   :   61;
  B46   :   61;
  B47   :   61;
  B48   :   61;
  B49   :   61;
  B4A   :   61;
  B4B   :   61;
  B4C   :   61;
  B4D   :   61;
  B4E   :   61;
  B4F   :   61;
  B50   :   61;
  B51   :   61;
  B52   :   61;
  B53   :   61;
  B54   :   61;
  B55   :   61;
  B56   :   61;
  B57   :   61;
  B58   :   61;
  B59   :   61;
  B5A   :   61;
  B5B   :   61;
  B5C   :   61;
  B5D   :   61;
  B5E   :   61;
  B5F   :   61;
  B60   :   61;
  B61   :   61;
  B62   :   61;
  B63   :   61;
  B64   :   61;
  B65   :   61;
  B66   :   61;
  B67   :   61;
  B68   :   61;
  B69   :   61;
  B6A   :   61;
  B6B   :   61;
  B6C   :   61;
  B6D   :   61;
  B6E   :   61;
  B6F   :   61;
  B70   :   61;
  B71   :   61;
  B72   :   61;
  B73   :   61;
  B74   :   61;
  B75   :   61;
  B76   :   61;
  B77   :   61;
  B78   :   61;
  B79   :   61;
  B7A   :   61;
  B7B   :   61;
  B7C   :   61;
  B7D   :   61;
  B7E   :   61;
  B7F   :   61;
  B80   :   61;
  B81   :   61;
  B82   :   61;
  B83   :   61;
  B84   :   61;
  B85   :   61;
  B86   :   61;
  B87   :   61;
  B88   :   61;
  B89   :   61;
  B8A   :   61;
  B8B   :   61;
  B8C   :   61;
  B8D   :   61;
  B8E   :   61;
  B8F   :   61;
  B90   :   61;
  B91   :   61;
  B92   :   61;
  B93   :   61;
  B94   :   61;
  B95   :   61;
  B96   :   61;
  B97   :   61;
  B98   :   61;
  B99   :   61;
  B9A   :   61;
  B9B   :   61;
  B9C   :   61;
  B9D   :   61;
  B9E   :   61;
  B9F   :   61;
  BA0   :   61;
  BA1   :   61;
  BA2   :   61;
  BA3   :   61;
  BA4   :   61;
  BA5   :   61;
  BA6   :   61;
  BA7   :   61;
  BA8   :   61;
  BA9   :   61;
  BAA   :   61;
  BAB   :   61;
  BAC   :   61;
  BAD   :   61;
  BAE   :   61;
  BAF   :   61;
  BB0   :   61;
  BB1   :   61;
  BB2   :   61;
  BB3   :   61;
  BB4   :   61;
  BB5   :   61;
  BB6   :   61;
  BB7   :   61;
  BB8   :   61;
  BB9   :   61;
  BBA   :   61;
  BBB   :   61;
  BBC   :   61;
  BBD   :   61;
  BBE   :   61;
  BBF   :   61;
  BC0   :   61;
  BC1   :   61;
  BC2   :   61;
  BC3   :   61;
  BC4   :   61;
  BC5   :   61;
  BC6   :   61;
  BC7   :   61;
  BC8   :   61;
  BC9   :   61;
  BCA   :   61;
  BCB   :   61;
  BCC   :   61;
  BCD   :   61;
  BCE   :   61;
  BCF   :   61;
  BD0   :   61;
  BD1   :   61;
  BD2   :   61;
  BD3   :   61;
  BD4   :   61;
  BD5   :   61;
  BD6   :   61;
  BD7   :   61;
  BD8   :   61;
  BD9   :   61;
  BDA   :   61;
  BDB   :   61;
  BDC   :   61;
  BDD   :   61;
  BDE   :   61;
  BDF   :   61;
  BE0   :   61;
  BE1   :   61;
  BE2   :   61;
  BE3   :   61;
  BE4   :   61;
  BE5   :   61;
  BE6   :   61;
  BE7   :   61;
  BE8   :   61;
  BE9   :   61;
  BEA   :   61;
  BEB   :   61;
  BEC   :   61;
  BED   :   61;
  BEE   :   61;
  BEF   :   61;
  BF0   :   61;
  BF1   :   61;
  BF2   :   61;
  BF3   :   61;
  BF4   :   61;
  BF5   :   61;
  BF6   :   61;
  BF7   :   61;
  BF8   :   61;
  BF9   :   61;
  BFA   :   61;
  BFB   :   61;
  BFC   :   61;
  BFD   :   61;
  BFE   :   61;
  BFF   :   61;
  C00   :   61;
  C01   :   61;
  C02   :   61;
  C03   :   61;
  C04   :   61;
  C05   :   61;
  C06   :   61;
  C07   :   61;
  C08   :   61;
  C09   :   61;
  C0A   :   61;
  C0B   :   61;
  C0C   :   61;
  C0D   :   61;
  C0E   :   61;
  C0F   :   61;
  C10   :   61;
  C11   :   61;
  C12   :   61;
  C13   :   61;
  C14   :   61;
  C15   :   61;
  C16   :   61;
  C17   :   61;
  C18   :   61;
  C19   :   61;
  C1A   :   61;
  C1B   :   61;
  C1C   :   61;
  C1D   :   61;
  C1E   :   61;
  C1F   :   61;
  C20   :   61;
  C21   :   61;
  C22   :   61;
  C23   :   61;
  C24   :   61;
  C25   :   61;
  C26   :   61;
  C27   :   61;
  C28   :   61;
  C29   :   61;
  C2A   :   61;
  C2B   :   61;
  C2C   :   61;
  C2D   :   61;
  C2E   :   61;
  C2F   :   61;
  C30   :   61;
  C31   :   61;
  C32   :   61;
  C33   :   61;
  C34   :   61;
  C35   :   61;
  C36   :   61;
  C37   :   61;
  C38   :   61;
  C39   :   61;
  C3A   :   61;
  C3B   :   61;
  C3C   :   61;
  C3D   :   61;
  C3E   :   61;
  C3F   :   61;
  C40   :   61;
  C41   :   61;
  C42   :   61;
  C43   :   61;
  C44   :   61;
  C45   :   61;
  C46   :   61;
  C47   :   61;
  C48   :   61;
  C49   :   61;
  C4A   :   61;
  C4B   :   61;
  C4C   :   61;
  C4D   :   61;
  C4E   :   61;
  C4F   :   61;
  C50   :   61;
  C51   :   61;
  C52   :   61;
  C53   :   61;
  C54   :   61;
  C55   :   61;
  C56   :   61;
  C57   :   61;
  C58   :   61;
  C59   :   61;
  C5A   :   61;
  C5B   :   61;
  C5C   :   61;
  C5D   :   61;
  C5E   :   61;
  C5F   :   61;
  C60   :   61;
  C61   :   61;
  C62   :   61;
  C63   :   61;
  C64   :   61;
  C65   :   61;
  C66   :   61;
  C67   :   61;
  C68   :   61;
  C69   :   61;
  C6A   :   61;
  C6B   :   61;
  C6C   :   61;
  C6D   :   61;
  C6E   :   61;
  C6F   :   61;
  C70   :   61;
  C71   :   61;
  C72   :   61;
  C73   :   61;
  C74   :   61;
  C75   :   61;
  C76   :   61;
  C77   :   61;
  C78   :   61;
  C79   :   61;
  C7A   :   61;
  C7B   :   61;
  C7C   :   61;
  C7D   :   61;
  C7E   :   61;
  C7F   :   61;
  C80   :   61;
  C81   :   61;
  C82   :   61;
  C83   :   61;
  C84   :   61;
  C85   :   61;
  C86   :   61;
  C87   :   61;
  C88   :   61;
  C89   :   61;
  C8A   :   61;
  C8B   :   61;
  C8C   :   61;
  C8D   :   61;
  C8E   :   61;
  C8F   :   61;
  C90   :   61;
  C91   :   61;
  C92   :   61;
  C93   :   61;
  C94   :   61;
  C95   :   61;
  C96   :   61;
  C97   :   61;
  C98   :   61;
  C99   :   61;
  C9A   :   61;
  C9B   :   61;
  C9C   :   61;
  C9D   :   61;
  C9E   :   61;
  C9F   :   61;
  CA0   :   61;
  CA1   :   61;
  CA2   :   61;
  CA3   :   61;
  CA4   :   61;
  CA5   :   61;
  CA6   :   61;
  CA7   :   61;
  CA8   :   61;
  CA9   :   61;
  CAA   :   61;
  CAB   :   61;
  CAC   :   61;
  CAD   :   61;
  CAE   :   61;
  CAF   :   61;
  CB0   :   61;
  CB1   :   61;
  CB2   :   61;
  CB3   :   61;
  CB4   :   61;
  CB5   :   61;
  CB6   :   61;
  CB7   :   61;
  CB8   :   61;
  CB9   :   61;
  CBA   :   61;
  CBB   :   61;
  CBC   :   61;
  CBD   :   61;
  CBE   :   61;
  CBF   :   61;
  CC0   :   61;
  CC1   :   61;
  CC2   :   61;
  CC3   :   61;
  CC4   :   61;
  CC5   :   61;
  CC6   :   61;
  CC7   :   61;
  CC8   :   61;
  CC9   :   61;
  CCA   :   61;
  CCB   :   61;
  CCC   :   61;
  CCD   :   61;
  CCE   :   61;
  CCF   :   61;
  CD0   :   61;
  CD1   :   61;
  CD2   :   61;
  CD3   :   61;
  CD4   :   61;
  CD5   :   61;
  CD6   :   61;
  CD7   :   61;
  CD8   :   61;
  CD9   :   61;
  CDA   :   61;
  CDB   :   61;
  CDC   :   61;
  CDD   :   61;
  CDE   :   61;
  CDF   :   61;
  CE0   :   61;
  CE1   :   61;
  CE2   :   61;
  CE3   :   61;
  CE4   :   61;
  CE5   :   61;
  CE6   :   61;
  CE7   :   61;
  CE8   :   61;
  CE9   :   61;
  CEA   :   61;
  CEB   :   61;
  CEC   :   61;
  CED   :   61;
  CEE   :   61;
  CEF   :   61;
  CF0   :   61;
  CF1   :   61;
  CF2   :   61;
  CF3   :   61;
  CF4   :   61;
  CF5   :   61;
  CF6   :   61;
  CF7   :   61;
  CF8   :   61;
  CF9   :   61;
  CFA   :   61;
  CFB   :   61;
  CFC   :   61;
  CFD   :   61;
  CFE   :   61;
  CFF   :   61;
  D00   :   61;
  D01   :   61;
  D02   :   61;
  D03   :   61;
  D04   :   61;
  D05   :   61;
  D06   :   61;
  D07   :   61;
  D08   :   61;
  D09   :   61;
  D0A   :   61;
  D0B   :   61;
  D0C   :   61;
  D0D   :   61;
  D0E   :   61;
  D0F   :   61;
  D10   :   61;
  D11   :   61;
  D12   :   61;
  D13   :   61;
  D14   :   61;
  D15   :   61;
  D16   :   61;
  D17   :   61;
  D18   :   61;
  D19   :   61;
  D1A   :   61;
  D1B   :   61;
  D1C   :   61;
  D1D   :   61;
  D1E   :   61;
  D1F   :   61;
  D20   :   61;
  D21   :   61;
  D22   :   61;
  D23   :   61;
  D24   :   61;
  D25   :   61;
  D26   :   61;
  D27   :   61;
  D28   :   61;
  D29   :   61;
  D2A   :   61;
  D2B   :   61;
  D2C   :   61;
  D2D   :   61;
  D2E   :   61;
  D2F   :   61;
  D30   :   61;
  D31   :   61;
  D32   :   61;
  D33   :   61;
  D34   :   61;
  D35   :   61;
  D36   :   61;
  D37   :   61;
  D38   :   61;
  D39   :   61;
  D3A   :   61;
  D3B   :   61;
  D3C   :   61;
  D3D   :   61;
  D3E   :   61;
  D3F   :   61;
  D40   :   61;
  D41   :   61;
  D42   :   61;
  D43   :   61;
  D44   :   61;
  D45   :   61;
  D46   :   61;
  D47   :   61;
  D48   :   61;
  D49   :   61;
  D4A   :   61;
  D4B   :   61;
  D4C   :   61;
  D4D   :   61;
  D4E   :   61;
  D4F   :   61;
  D50   :   61;
  D51   :   61;
  D52   :   61;
  D53   :   61;
  D54   :   61;
  D55   :   61;
  D56   :   61;
  D57   :   61;
  D58   :   61;
  D59   :   61;
  D5A   :   61;
  D5B   :   61;
  D5C   :   61;
  D5D   :   61;
  D5E   :   61;
  D5F   :   61;
  D60   :   61;
  D61   :   61;
  D62   :   61;
  D63   :   61;
  D64   :   61;
  D65   :   61;
  D66   :   61;
  D67   :   61;
  D68   :   61;
  D69   :   61;
  D6A   :   61;
  D6B   :   61;
  D6C   :   61;
  D6D   :   61;
  D6E   :   61;
  D6F   :   61;
  D70   :   61;
  D71   :   61;
  D72   :   61;
  D73   :   61;
  D74   :   61;
  D75   :   61;
  D76   :   61;
  D77   :   61;
  D78   :   61;
  D79   :   61;
  D7A   :   61;
  D7B   :   61;
  D7C   :   61;
  D7D   :   61;
  D7E   :   61;
  D7F   :   61;
  D80   :   61;
  D81   :   61;
  D82   :   61;
  D83   :   61;
  D84   :   61;
  D85   :   61;
  D86   :   61;
  D87   :   61;
  D88   :   61;
  D89   :   61;
  D8A   :   61;
  D8B   :   61;
  D8C   :   61;
  D8D   :   61;
  D8E   :   61;
  D8F   :   61;
  D90   :   61;
  D91   :   61;
  D92   :   61;
  D93   :   61;
  D94   :   61;
  D95   :   61;
  D96   :   61;
  D97   :   61;
  D98   :   61;
  D99   :   61;
  D9A   :   61;
  D9B   :   61;
  D9C   :   61;
  D9D   :   61;
  D9E   :   61;
  D9F   :   61;
  DA0   :   61;
  DA1   :   61;
  DA2   :   61;
  DA3   :   61;
  DA4   :   61;
  DA5   :   61;
  DA6   :   61;
  DA7   :   61;
  DA8   :   61;
  DA9   :   61;
  DAA   :   61;
  DAB   :   61;
  DAC   :   61;
  DAD   :   61;
  DAE   :   61;
  DAF   :   61;
  DB0   :   61;
  DB1   :   61;
  DB2   :   61;
  DB3   :   61;
  DB4   :   61;
  DB5   :   61;
  DB6   :   61;
  DB7   :   61;
  DB8   :   61;
  DB9   :   61;
  DBA   :   61;
  DBB   :   61;
  DBC   :   61;
  DBD   :   61;
  DBE   :   61;
  DBF   :   61;
  DC0   :   61;
  DC1   :   61;
  DC2   :   61;
  DC3   :   61;
  DC4   :   61;
  DC5   :   61;
  DC6   :   61;
  DC7   :   61;
  DC8   :   61;
  DC9   :   61;
  DCA   :   61;
  DCB   :   61;
  DCC   :   61;
  DCD   :   61;
  DCE   :   61;
  DCF   :   61;
  DD0   :   61;
  DD1   :   61;
  DD2   :   61;
  DD3   :   61;
  DD4   :   61;
  DD5   :   61;
  DD6   :   61;
  DD7   :   61;
  DD8   :   61;
  DD9   :   61;
  DDA   :   61;
  DDB   :   61;
  DDC   :   61;
  DDD   :   61;
  DDE   :   61;
  DDF   :   61;
  DE0   :   61;
  DE1   :   61;
  DE2   :   61;
  DE3   :   61;
  DE4   :   61;
  DE5   :   61;
  DE6   :   61;
  DE7   :   61;
  DE8   :   61;
  DE9   :   61;
  DEA   :   61;
  DEB   :   61;
  DEC   :   61;
  DED   :   61;
  DEE   :   61;
  DEF   :   61;
  DF0   :   61;
  DF1   :   61;
  DF2   :   61;
  DF3   :   61;
  DF4   :   61;
  DF5   :   61;
  DF6   :   61;
  DF7   :   61;
  DF8   :   61;
  DF9   :   61;
  DFA   :   61;
  DFB   :   61;
  DFC   :   61;
  DFD   :   61;
  DFE   :   61;
  DFF   :   61;
  E00   :   61;
  E01   :   61;
  E02   :   61;
  E03   :   61;
  E04   :   61;
  E05   :   61;
  E06   :   61;
  E07   :   61;
  E08   :   61;
  E09   :   61;
  E0A   :   61;
  E0B   :   61;
  E0C   :   61;
  E0D   :   61;
  E0E   :   61;
  E0F   :   61;
  E10   :   61;
  E11   :   61;
  E12   :   61;
  E13   :   61;
  E14   :   61;
  E15   :   61;
  E16   :   61;
  E17   :   61;
  E18   :   61;
  E19   :   61;
  E1A   :   61;
  E1B   :   61;
  E1C   :   61;
  E1D   :   61;
  E1E   :   61;
  E1F   :   61;
  E20   :   61;
  E21   :   61;
  E22   :   61;
  E23   :   61;
  E24   :   61;
  E25   :   61;
  E26   :   61;
  E27   :   61;
  E28   :   61;
  E29   :   61;
  E2A   :   61;
  E2B   :   61;
  E2C   :   61;
  E2D   :   61;
  E2E   :   61;
  E2F   :   61;
  E30   :   61;
  E31   :   61;
  E32   :   61;
  E33   :   61;
  E34   :   61;
  E35   :   61;
  E36   :   61;
  E37   :   61;
  E38   :   61;
  E39   :   61;
  E3A   :   61;
  E3B   :   61;
  E3C   :   61;
  E3D   :   61;
  E3E   :   61;
  E3F   :   61;
  E40   :   61;
  E41   :   61;
  E42   :   61;
  E43   :   61;
  E44   :   61;
  E45   :   61;
  E46   :   61;
  E47   :   61;
  E48   :   61;
  E49   :   61;
  E4A   :   61;
  E4B   :   61;
  E4C   :   61;
  E4D   :   61;
  E4E   :   61;
  E4F   :   61;
  E50   :   61;
  E51   :   61;
  E52   :   61;
  E53   :   61;
  E54   :   61;
  E55   :   61;
  E56   :   61;
  E57   :   61;
  E58   :   61;
  E59   :   61;
  E5A   :   61;
  E5B   :   61;
  E5C   :   61;
  E5D   :   61;
  E5E   :   61;
  E5F   :   61;
  E60   :   61;
  E61   :   61;
  E62   :   61;
  E63   :   61;
  E64   :   61;
  E65   :   61;
  E66   :   61;
  E67   :   61;
  E68   :   61;
  E69   :   61;
  E6A   :   61;
  E6B   :   61;
  E6C   :   61;
  E6D   :   61;
  E6E   :   61;
  E6F   :   61;
  E70   :   61;
  E71   :   61;
  E72   :   61;
  E73   :   61;
  E74   :   61;
  E75   :   61;
  E76   :   61;
  E77   :   61;
  E78   :   61;
  E79   :   61;
  E7A   :   61;
  E7B   :   61;
  E7C   :   61;
  E7D   :   61;
  E7E   :   61;
  E7F   :   61;
  E80   :   61;
  E81   :   61;
  E82   :   61;
  E83   :   61;
  E84   :   61;
  E85   :   61;
  E86   :   61;
  E87   :   61;
  E88   :   61;
  E89   :   61;
  E8A   :   61;
  E8B   :   61;
  E8C   :   61;
  E8D   :   61;
  E8E   :   61;
  E8F   :   61;
  E90   :   61;
  E91   :   61;
  E92   :   61;
  E93   :   61;
  E94   :   61;
  E95   :   61;
  E96   :   61;
  E97   :   61;
  E98   :   61;
  E99   :   61;
  E9A   :   61;
  E9B   :   61;
  E9C   :   61;
  E9D   :   61;
  E9E   :   61;
  E9F   :   61;
  EA0   :   61;
  EA1   :   61;
  EA2   :   61;
  EA3   :   61;
  EA4   :   61;
  EA5   :   61;
  EA6   :   61;
  EA7   :   61;
  EA8   :   61;
  EA9   :   61;
  EAA   :   61;
  EAB   :   61;
  EAC   :   61;
  EAD   :   61;
  EAE   :   61;
  EAF   :   61;
  EB0   :   61;
  EB1   :   61;
  EB2   :   61;
  EB3   :   61;
  EB4   :   61;
  EB5   :   61;
  EB6   :   61;
  EB7   :   61;
  EB8   :   61;
  EB9   :   61;
  EBA   :   61;
  EBB   :   61;
  EBC   :   61;
  EBD   :   61;
  EBE   :   61;
  EBF   :   61;
  EC0   :   61;
  EC1   :   61;
  EC2   :   61;
  EC3   :   61;
  EC4   :   61;
  EC5   :   61;
  EC6   :   61;
  EC7   :   61;
  EC8   :   61;
  EC9   :   61;
  ECA   :   61;
  ECB   :   61;
  ECC   :   61;
  ECD   :   61;
  ECE   :   61;
  ECF   :   61;
  ED0   :   61;
  ED1   :   61;
  ED2   :   61;
  ED3   :   61;
  ED4   :   61;
  ED5   :   61;
  ED6   :   61;
  ED7   :   61;
  ED8   :   61;
  ED9   :   61;
  EDA   :   61;
  EDB   :   61;
  EDC   :   61;
  EDD   :   61;
  EDE   :   61;
  EDF   :   61;
  EE0   :   61;
  EE1   :   61;
  EE2   :   61;
  EE3   :   61;
  EE4   :   61;
  EE5   :   61;
  EE6   :   61;
  EE7   :   61;
  EE8   :   61;
  EE9   :   61;
  EEA   :   61;
  EEB   :   61;
  EEC   :   61;
  EED   :   61;
  EEE   :   61;
  EEF   :   61;
  EF0   :   61;
  EF1   :   61;
  EF2   :   61;
  EF3   :   61;
  EF4   :   61;
  EF5   :   61;
  EF6   :   61;
  EF7   :   61;
  EF8   :   61;
  EF9   :   61;
  EFA   :   61;
  EFB   :   61;
  EFC   :   61;
  EFD   :   61;
  EFE   :   61;
  EFF   :   61;
  F00   :   61;
  F01   :   61;
  F02   :   61;
  F03   :   61;
  F04   :   61;
  F05   :   61;
  F06   :   61;
  F07   :   61;
  F08   :   61;
  F09   :   61;
  F0A   :   61;
  F0B   :   61;
  F0C   :   61;
  F0D   :   61;
  F0E   :   61;
  F0F   :   61;
  F10   :   61;
  F11   :   61;
  F12   :   61;
  F13   :   61;
  F14   :   61;
  F15   :   61;
  F16   :   61;
  F17   :   61;
  F18   :   61;
  F19   :   61;
  F1A   :   61;
  F1B   :   61;
  F1C   :   61;
  F1D   :   61;
  F1E   :   61;
  F1F   :   61;
  F20   :   61;
  F21   :   61;
  F22   :   61;
  F23   :   61;
  F24   :   61;
  F25   :   61;
  F26   :   61;
  F27   :   61;
  F28   :   61;
  F29   :   61;
  F2A   :   61;
  F2B   :   61;
  F2C   :   61;
  F2D   :   61;
  F2E   :   61;
  F2F   :   61;
  F30   :   61;
  F31   :   61;
  F32   :   61;
  F33   :   61;
  F34   :   61;
  F35   :   61;
  F36   :   61;
  F37   :   61;
  F38   :   61;
  F39   :   61;
  F3A   :   61;
  F3B   :   61;
  F3C   :   61;
  F3D   :   61;
  F3E   :   61;
  F3F   :   61;
  F40   :   61;
  F41   :   61;
  F42   :   61;
  F43   :   61;
  F44   :   61;
  F45   :   61;
  F46   :   61;
  F47   :   61;
  F48   :   61;
  F49   :   61;
  F4A   :   61;
  F4B   :   61;
  F4C   :   61;
  F4D   :   61;
  F4E   :   61;
  F4F   :   61;
  F50   :   61;
  F51   :   61;
  F52   :   61;
  F53   :   61;
  F54   :   61;
  F55   :   61;
  F56   :   61;
  F57   :   61;
  F58   :   61;
  F59   :   61;
  F5A   :   61;
  F5B   :   61;
  F5C   :   61;
  F5D   :   61;
  F5E   :   61;
  F5F   :   61;
  F60   :   61;
  F61   :   61;
  F62   :   61;
  F63   :   61;
  F64   :   61;
  F65   :   61;
  F66   :   61;
  F67   :   61;
  F68   :   61;
  F69   :   61;
  F6A   :   61;
  F6B   :   61;
  F6C   :   61;
  F6D   :   61;
  F6E   :   61;
  F6F   :   61;
  F70   :   61;
  F71   :   61;
  F72   :   61;
  F73   :   61;
  F74   :   61;
  F75   :   61;
  F76   :   61;
  F77   :   61;
  F78   :   61;
  F79   :   61;
  F7A   :   61;
  F7B   :   61;
  F7C   :   61;
  F7D   :   61;
  F7E   :   61;
  F7F   :   61;
  F80   :   61;
  F81   :   61;
  F82   :   61;
  F83   :   61;
  F84   :   61;
  F85   :   61;
  F86   :   61;
  F87   :   61;
  F88   :   61;
  F89   :   61;
  F8A   :   61;
  F8B   :   61;
  F8C   :   61;
  F8D   :   61;
  F8E   :   61;
  F8F   :   61;
  F90   :   61;
  F91   :   61;
  F92   :   61;
  F93   :   61;
  F94   :   61;
  F95   :   61;
  F96   :   61;
  F97   :   61;
  F98   :   61;
  F99   :   61;
  F9A   :   61;
  F9B   :   61;
  F9C   :   61;
  F9D   :   61;
  F9E   :   61;
  F9F   :   61;
  FA0   :   61;
  FA1   :   61;
  FA2   :   61;
  FA3   :   61;
  FA4   :   61;
  FA5   :   61;
  FA6   :   61;
  FA7   :   61;
  FA8   :   61;
  FA9   :   61;
  FAA   :   61;
  FAB   :   61;
  FAC   :   61;
  FAD   :   61;
  FAE   :   61;
  FAF   :   61;
  FB0   :   61;
  FB1   :   61;
  FB2   :   61;
  FB3   :   61;
  FB4   :   61;
  FB5   :   61;
  FB6   :   61;
  FB7   :   61;
  FB8   :   61;
  FB9   :   61;
  FBA   :   61;
  FBB   :   61;
  FBC   :   61;
  FBD   :   61;
  FBE   :   61;
  FBF   :   61;
  FC0   :   61;
  FC1   :   61;
  FC2   :   61;
  FC3   :   61;
  FC4   :   61;
  FC5   :   61;
  FC6   :   61;
  FC7   :   61;
  FC8   :   61;
  FC9   :   61;
  FCA   :   61;
  FCB   :   61;
  FCC   :   61;
  FCD   :   61;
  FCE   :   61;
  FCF   :   61;
  FD0   :   61;
  FD1   :   61;
  FD2   :   61;
  FD3   :   61;
  FD4   :   61;
  FD5   :   61;
  FD6   :   61;
  FD7   :   61;
  FD8   :   61;
  FD9   :   61;
  FDA   :   61;
  FDB   :   61;
  FDC   :   61;
  FDD   :   61;
  FDE   :   61;
  FDF   :   61;
  FE0   :   61;
  FE1   :   61;
  FE2   :   61;
  FE3   :   61;
  FE4   :   61;
  FE5   :   61;
  FE6   :   61;
  FE7   :   61;
  FE8   :   61;
  FE9   :   61;
  FEA   :   61;
  FEB   :   61;
  FEC   :   61;
  FED   :   61;
  FEE   :   61;
  FEF   :   61;
  FF0   :   61;
  FF1   :   61;
  FF2   :   61;
  FF3   :   61;
  FF4   :   61;
  FF5   :   61;
  FF6   :   61;
  FF7   :   61;
  FF8   :   61;
  FF9   :   61;
  FFA   :   61;
  FFB   :   61;
  FFC   :   61;
  FFD   :   61;
  FFE   :   61;
  FFF   :   61;
 1000   :   4C;
 1001   :   7B;
 1002   :   D2;
 1003   :    8;
 1004   :   48;
 1005   :   8A;
 1006   :   48;
 1007   :   98;
 1008   :   48;
 1009   :   20;
 100A   :   2F;
 100B   :   D3;
 100C   :   68;
 100D   :   A8;
 100E   :   68;
 100F   :   AA;
 1010   :   68;
 1011   :   28;
 1012   :   40;
 1013   :   A9;
 1014   :    0;
 1015   :   85;
 1016   :    2;
 1017   :   A2;
 1018   :    0;
 1019   :   A5;
 101A   :    2;
 101B   :   20;
 101C   :   E0;
 101D   :   D3;
 101E   :   86;
 101F   :   1D;
 1020   :    A;
 1021   :   26;
 1022   :   1D;
 1023   :   48;
 1024   :   A5;
 1025   :   1D;
 1026   :   18;
 1027   :   69;
 1028   :   80;
 1029   :   AA;
 102A   :   68;
 102B   :   85;
 102C   :    9;
 102D   :   86;
 102E   :    A;
 102F   :   85;
 1030   :   15;
 1031   :   86;
 1032   :   16;
 1033   :   A0;
 1034   :    0;
 1035   :   B1;
 1036   :   15;
 1037   :   F0;
 1038   :    8;
 1039   :   A5;
 103A   :    2;
 103B   :   18;
 103C   :   69;
 103D   :    1;
 103E   :   4C;
 103F   :   15;
 1040   :   D0;
 1041   :   60;
 1042   :   A9;
 1043   :    0;
 1044   :   85;
 1045   :    3;
 1046   :   AA;
 1047   :   A5;
 1048   :    0;
 1049   :   20;
 104A   :   E0;
 104B   :   D3;
 104C   :   86;
 104D   :   1D;
 104E   :    A;
 104F   :   26;
 1050   :   1D;
 1051   :   85;
 1052   :    9;
 1053   :   A5;
 1054   :   1D;
 1055   :   18;
 1056   :   69;
 1057   :   80;
 1058   :   85;
 1059   :    A;
 105A   :   A9;
 105B   :    0;
 105C   :   85;
 105D   :    6;
 105E   :   C9;
 105F   :    A;
 1060   :   90;
 1061   :    1;
 1062   :   60;
 1063   :   A2;
 1064   :    0;
 1065   :   A5;
 1066   :    6;
 1067   :   20;
 1068   :   E0;
 1069   :   D3;
 106A   :   86;
 106B   :   1D;
 106C   :    A;
 106D   :   26;
 106E   :   1D;
 106F   :   48;
 1070   :   A5;
 1071   :   1D;
 1072   :   18;
 1073   :   69;
 1074   :   20;
 1075   :   AA;
 1076   :   68;
 1077   :   18;
 1078   :   69;
 1079   :   84;
 107A   :   90;
 107B   :    1;
 107C   :   E8;
 107D   :   85;
 107E   :    B;
 107F   :   86;
 1080   :    C;
 1081   :   A5;
 1082   :    9;
 1083   :   85;
 1084   :   15;
 1085   :   A5;
 1086   :    A;
 1087   :   85;
 1088   :   16;
 1089   :   A0;
 108A   :    0;
 108B   :   B1;
 108C   :   15;
 108D   :   F0;
 108E   :   2C;
 108F   :   A2;
 1090   :    0;
 1091   :   A5;
 1092   :    0;
 1093   :   20;
 1094   :   E0;
 1095   :   D3;
 1096   :   86;
 1097   :   1D;
 1098   :    A;
 1099   :   26;
 109A   :   1D;
 109B   :   85;
 109C   :   15;
 109D   :   A5;
 109E   :   1D;
 109F   :   18;
 10A0   :   69;
 10A1   :   80;
 10A2   :   85;
 10A3   :   16;
 10A4   :   A2;
 10A5   :    0;
 10A6   :   A5;
 10A7   :    6;
 10A8   :   20;
 10A9   :   E0;
 10AA   :   D3;
 10AB   :   86;
 10AC   :   1D;
 10AD   :    A;
 10AE   :   26;
 10AF   :   1D;
 10B0   :   18;
 10B1   :   65;
 10B2   :   15;
 10B3   :   85;
 10B4   :    9;
 10B5   :   A5;
 10B6   :   1D;
 10B7   :   65;
 10B8   :   16;
 10B9   :   85;
 10BA   :    A;
 10BB   :   A5;
 10BC   :    9;
 10BD   :   85;
 10BE   :   15;
 10BF   :   A5;
 10C0   :    A;
 10C1   :   85;
 10C2   :   16;
 10C3   :   B1;
 10C4   :   15;
 10C5   :   F0;
 10C6   :    7;
 10C7   :   A5;
 10C8   :    3;
 10C9   :   18;
 10CA   :   69;
 10CB   :    1;
 10CC   :   85;
 10CD   :    3;
 10CE   :   A5;
 10CF   :    C;
 10D0   :   8D;
 10D1   :    6;
 10D2   :   20;
 10D3   :   A5;
 10D4   :    B;
 10D5   :   8D;
 10D6   :    6;
 10D7   :   20;
 10D8   :   98;
 10D9   :   85;
 10DA   :    7;
 10DB   :   C9;
 10DC   :   17;
 10DD   :   B0;
 10DE   :   4A;
 10DF   :   A5;
 10E0   :    9;
 10E1   :   85;
 10E2   :    B;
 10E3   :   A5;
 10E4   :    A;
 10E5   :   85;
 10E6   :    C;
 10E7   :   A5;
 10E8   :    9;
 10E9   :   85;
 10EA   :   15;
 10EB   :   A5;
 10EC   :    A;
 10ED   :   85;
 10EE   :   16;
 10EF   :   B1;
 10F0   :   15;
 10F1   :   F0;
 10F2   :    D;
 10F3   :   A5;
 10F4   :    7;
 10F5   :   18;
 10F6   :   65;
 10F7   :    9;
 10F8   :   85;
 10F9   :    9;
 10FA   :   A9;
 10FB   :    0;
 10FC   :   65;
 10FD   :    A;
 10FE   :   85;
 10FF   :    A;
 1100   :   A5;
 1101   :    9;
 1102   :   85;
 1103   :   15;
 1104   :   A5;
 1105   :    A;
 1106   :   85;
 1107   :   16;
 1108   :   B1;
 1109   :   15;
 110A   :   F0;
 110B   :    A;
 110C   :   A5;
 110D   :    9;
 110E   :   85;
 110F   :   15;
 1110   :   A5;
 1111   :    A;
 1112   :   85;
 1113   :   16;
 1114   :   B1;
 1115   :   15;
 1116   :   8D;
 1117   :    7;
 1118   :   20;
 1119   :   A5;
 111A   :    B;
 111B   :   85;
 111C   :    9;
 111D   :   A5;
 111E   :    C;
 111F   :   85;
 1120   :    A;
 1121   :   A5;
 1122   :    7;
 1123   :   18;
 1124   :   69;
 1125   :    1;
 1126   :   4C;
 1127   :   D9;
 1128   :   D0;
 1129   :   A5;
 112A   :    6;
 112B   :   18;
 112C   :   69;
 112D   :    1;
 112E   :   4C;
 112F   :   5C;
 1130   :   D0;
 1131   :   A2;
 1132   :    0;
 1133   :   A5;
 1134   :    7;
 1135   :   20;
 1136   :   E0;
 1137   :   D3;
 1138   :   86;
 1139   :   1D;
 113A   :    A;
 113B   :   26;
 113C   :   1D;
 113D   :   48;
 113E   :   A5;
 113F   :   1D;
 1140   :   18;
 1141   :   69;
 1142   :   20;
 1143   :   AA;
 1144   :   68;
 1145   :   18;
 1146   :   69;
 1147   :   82;
 1148   :   90;
 1149   :    1;
 114A   :   E8;
 114B   :   85;
 114C   :    B;
 114D   :   86;
 114E   :    C;
 114F   :   A5;
 1150   :    C;
 1151   :   8D;
 1152   :    6;
 1153   :   20;
 1154   :   A5;
 1155   :    B;
 1156   :   8D;
 1157   :    6;
 1158   :   20;
 1159   :   A9;
 115A   :    0;
 115B   :   8D;
 115C   :    7;
 115D   :   20;
 115E   :   AA;
 115F   :   A5;
 1160   :    1;
 1161   :   20;
 1162   :   E0;
 1163   :   D3;
 1164   :   86;
 1165   :   1D;
 1166   :    A;
 1167   :   26;
 1168   :   1D;
 1169   :   48;
 116A   :   A5;
 116B   :   1D;
 116C   :   18;
 116D   :   69;
 116E   :   20;
 116F   :   AA;
 1170   :   68;
 1171   :   18;
 1172   :   69;
 1173   :   82;
 1174   :   90;
 1175   :    1;
 1176   :   E8;
 1177   :   85;
 1178   :    B;
 1179   :   86;
 117A   :    C;
 117B   :   A5;
 117C   :    C;
 117D   :   8D;
 117E   :    6;
 117F   :   20;
 1180   :   A5;
 1181   :    B;
 1182   :   8D;
 1183   :    6;
 1184   :   20;
 1185   :   A9;
 1186   :   35;
 1187   :   8D;
 1188   :    7;
 1189   :   20;
 118A   :   60;
 118B   :   A5;
 118C   :    0;
 118D   :   18;
 118E   :   65;
 118F   :    1;
 1190   :   85;
 1191   :    7;
 1192   :   A2;
 1193   :    0;
 1194   :   A5;
 1195   :    7;
 1196   :   20;
 1197   :   E0;
 1198   :   D3;
 1199   :   86;
 119A   :   1D;
 119B   :    A;
 119C   :   26;
 119D   :   1D;
 119E   :   48;
 119F   :   A5;
 11A0   :   1D;
 11A1   :   18;
 11A2   :   69;
 11A3   :   80;
 11A4   :   AA;
 11A5   :   68;
 11A6   :   18;
 11A7   :   69;
 11A8   :   17;
 11A9   :   90;
 11AA   :    1;
 11AB   :   E8;
 11AC   :   85;
 11AD   :    9;
 11AE   :   86;
 11AF   :    A;
 11B0   :   85;
 11B1   :   15;
 11B2   :   86;
 11B3   :   16;
 11B4   :   A0;
 11B5   :    0;
 11B6   :   B1;
 11B7   :   15;
 11B8   :   8D;
 11B9   :   18;
 11BA   :   40;
 11BB   :   E6;
 11BC   :    9;
 11BD   :   D0;
 11BE   :    2;
 11BF   :   E6;
 11C0   :    A;
 11C1   :   A5;
 11C2   :    9;
 11C3   :   85;
 11C4   :   15;
 11C5   :   A5;
 11C6   :    A;
 11C7   :   85;
 11C8   :   16;
 11C9   :   B1;
 11CA   :   15;
 11CB   :   8D;
 11CC   :   18;
 11CD   :   40;
 11CE   :   E6;
 11CF   :    9;
 11D0   :   D0;
 11D1   :    2;
 11D2   :   E6;
 11D3   :    A;
 11D4   :   A5;
 11D5   :    9;
 11D6   :   85;
 11D7   :   15;
 11D8   :   A5;
 11D9   :    A;
 11DA   :   85;
 11DB   :   16;
 11DC   :   B1;
 11DD   :   15;
 11DE   :   8D;
 11DF   :   18;
 11E0   :   40;
 11E1   :   E6;
 11E2   :    9;
 11E3   :   D0;
 11E4   :    2;
 11E5   :   E6;
 11E6   :    A;
 11E7   :   A5;
 11E8   :    9;
 11E9   :   85;
 11EA   :   15;
 11EB   :   A5;
 11EC   :    A;
 11ED   :   85;
 11EE   :   16;
 11EF   :   B1;
 11F0   :   15;
 11F1   :   8D;
 11F2   :   18;
 11F3   :   40;
 11F4   :   E6;
 11F5   :    9;
 11F6   :   D0;
 11F7   :    2;
 11F8   :   E6;
 11F9   :    A;
 11FA   :   A5;
 11FB   :    9;
 11FC   :   85;
 11FD   :   15;
 11FE   :   A5;
 11FF   :    A;
 1200   :   85;
 1201   :   16;
 1202   :   B1;
 1203   :   15;
 1204   :   8D;
 1205   :   18;
 1206   :   40;
 1207   :   E6;
 1208   :    9;
 1209   :   D0;
 120A   :    2;
 120B   :   E6;
 120C   :    A;
 120D   :   A5;
 120E   :    9;
 120F   :   85;
 1210   :   15;
 1211   :   A5;
 1212   :    A;
 1213   :   85;
 1214   :   16;
 1215   :   B1;
 1216   :   15;
 1217   :   8D;
 1218   :   18;
 1219   :   40;
 121A   :   E6;
 121B   :    9;
 121C   :   D0;
 121D   :    2;
 121E   :   E6;
 121F   :    A;
 1220   :   A5;
 1221   :    9;
 1222   :   85;
 1223   :   15;
 1224   :   A5;
 1225   :    A;
 1226   :   85;
 1227   :   16;
 1228   :   B1;
 1229   :   15;
 122A   :   8D;
 122B   :   18;
 122C   :   40;
 122D   :   E6;
 122E   :    9;
 122F   :   D0;
 1230   :    2;
 1231   :   E6;
 1232   :    A;
 1233   :   A5;
 1234   :    9;
 1235   :   85;
 1236   :   15;
 1237   :   A5;
 1238   :    A;
 1239   :   85;
 123A   :   16;
 123B   :   B1;
 123C   :   15;
 123D   :   8D;
 123E   :   18;
 123F   :   40;
 1240   :   E6;
 1241   :    9;
 1242   :   D0;
 1243   :    2;
 1244   :   E6;
 1245   :    A;
 1246   :   A5;
 1247   :    9;
 1248   :   85;
 1249   :   15;
 124A   :   A5;
 124B   :    A;
 124C   :   85;
 124D   :   16;
 124E   :   B1;
 124F   :   15;
 1250   :   8D;
 1251   :   18;
 1252   :   40;
 1253   :   60;
 1254   :   A9;
 1255   :    1;
 1256   :   8D;
 1257   :   16;
 1258   :   40;
 1259   :   A9;
 125A   :    0;
 125B   :   8D;
 125C   :   16;
 125D   :   40;
 125E   :   85;
 125F   :    6;
 1260   :   C9;
 1261   :    8;
 1262   :   B0;
 1263   :   16;
 1264   :   A5;
 1265   :    4;
 1266   :    A;
 1267   :   85;
 1268   :    4;
 1269   :   AD;
 126A   :   16;
 126B   :   40;
 126C   :   29;
 126D   :    1;
 126E   :    5;
 126F   :    4;
 1270   :   85;
 1271   :    4;
 1272   :   A5;
 1273   :    6;
 1274   :   18;
 1275   :   69;
 1276   :    1;
 1277   :   4C;
 1278   :   5E;
 1279   :   D2;
 127A   :   60;
 127B   :   A9;
 127C   :    0;
 127D   :   85;
 127E   :    0;
 127F   :   85;
 1280   :    1;
 1281   :   85;
 1282   :    8;
 1283   :   85;
 1284   :    4;
 1285   :   A9;
 1286   :    1;
 1287   :   85;
 1288   :    5;
 1289   :   A9;
 128A   :    0;
 128B   :   8D;
 128C   :    0;
 128D   :   20;
 128E   :   8D;
 128F   :    1;
 1290   :   20;
 1291   :   A9;
 1292   :   20;
 1293   :   8D;
 1294   :    6;
 1295   :   20;
 1296   :   A9;
 1297   :    0;
 1298   :   8D;
 1299   :    6;
 129A   :   20;
 129B   :   85;
 129C   :    7;
 129D   :   C9;
 129E   :    2;
 129F   :   B0;
 12A0   :   1F;
 12A1   :   A9;
 12A2   :    0;
 12A3   :   85;
 12A4   :    6;
 12A5   :   A9;
 12A6   :    0;
 12A7   :   8D;
 12A8   :    7;
 12A9   :   20;
 12AA   :   A5;
 12AB   :    6;
 12AC   :   C9;
 12AD   :   FF;
 12AE   :   F0;
 12AF   :    8;
 12B0   :   A5;
 12B1   :    6;
 12B2   :   18;
 12B3   :   69;
 12B4   :    1;
 12B5   :   4C;
 12B6   :   A3;
 12B7   :   D2;
 12B8   :   A5;
 12B9   :    7;
 12BA   :   18;
 12BB   :   69;
 12BC   :    1;
 12BD   :   4C;
 12BE   :   9B;
 12BF   :   D2;
 12C0   :   A9;
 12C1   :   3F;
 12C2   :   8D;
 12C3   :    6;
 12C4   :   20;
 12C5   :   A9;
 12C6   :    0;
 12C7   :   8D;
 12C8   :    6;
 12C9   :   20;
 12CA   :   A9;
 12CB   :   10;
 12CC   :   8D;
 12CD   :    7;
 12CE   :   20;
 12CF   :   A9;
 12D0   :    C;
 12D1   :   8D;
 12D2   :    7;
 12D3   :   20;
 12D4   :   8D;
 12D5   :    7;
 12D6   :   20;
 12D7   :   8D;
 12D8   :    7;
 12D9   :   20;
 12DA   :   20;
 12DB   :   13;
 12DC   :   D0;
 12DD   :   A5;
 12DE   :    2;
 12DF   :   C9;
 12E0   :    0;
 12E1   :   F0;
 12E2   :   FE;
 12E3   :   20;
 12E4   :   42;
 12E5   :   D0;
 12E6   :   A9;
 12E7   :    0;
 12E8   :   85;
 12E9   :    7;
 12EA   :   20;
 12EB   :   31;
 12EC   :   D1;
 12ED   :   A9;
 12EE   :    0;
 12EF   :   8D;
 12F0   :    5;
 12F1   :   20;
 12F2   :   8D;
 12F3   :    5;
 12F4   :   20;
 12F5   :   A9;
 12F6   :   80;
 12F7   :   8D;
 12F8   :    0;
 12F9   :   20;
 12FA   :   4C;
 12FB   :   FA;
 12FC   :   D2;
 12FD   :   A9;
 12FE   :    0;
 12FF   :   8D;
 1300   :    1;
 1301   :   20;
 1302   :   20;
 1303   :   42;
 1304   :   D0;
 1305   :   A9;
 1306   :    0;
 1307   :   8D;
 1308   :    5;
 1309   :   20;
 130A   :   8D;
 130B   :    5;
 130C   :   20;
 130D   :   A9;
 130E   :    A;
 130F   :   85;
 1310   :    8;
 1311   :   A9;
 1312   :    1;
 1313   :   85;
 1314   :    5;
 1315   :   60;
 1316   :   A9;
 1317   :    0;
 1318   :   8D;
 1319   :    1;
 131A   :   20;
 131B   :   20;
 131C   :   31;
 131D   :   D1;
 131E   :   A9;
 131F   :    0;
 1320   :   8D;
 1321   :    5;
 1322   :   20;
 1323   :   8D;
 1324   :    5;
 1325   :   20;
 1326   :   A9;
 1327   :    A;
 1328   :   85;
 1329   :    8;
 132A   :   A9;
 132B   :    1;
 132C   :   85;
 132D   :    5;
 132E   :   60;
 132F   :   A9;
 1330   :    0;
 1331   :   8D;
 1332   :    0;
 1333   :   20;
 1334   :   A5;
 1335   :    5;
 1336   :   F0;
 1337   :    F;
 1338   :   A9;
 1339   :    A;
 133A   :   8D;
 133B   :    1;
 133C   :   20;
 133D   :   A9;
 133E   :   80;
 133F   :   8D;
 1340   :    0;
 1341   :   20;
 1342   :   A9;
 1343   :    0;
 1344   :   85;
 1345   :    5;
 1346   :   60;
 1347   :   AD;
 1348   :    2;
 1349   :   20;
 134A   :   85;
 134B   :    4;
 134C   :   A5;
[...]
 7B1F   :    0;
 7B20   :    0;
 7B21   :    0;
 7B22   :    0;
 7B23   :    0;
 7B24   :    0;
 7B25   :    0;
 7B26   :    0;
 7B27   :    0;
 7B28   :    0;
 7B29   :    0;
 7B2A   :    0;
 7B2B   :    0;
 7B2C   :    0;
 7B2D   :    0;
 7B2E   :    0;
 7B2F   :    0;
 7B30   :    0;
 7B31   :    0;
 7B32   :    0;
 7B33   :    0;
 7B34   :    0;
 7B35   :    0;
 7B36   :    0;
 7B37   :    0;
 7B38   :    0;
 7B39   :    0;
 7B3A   :    0;
 7B3B   :    0;
 7B3C   :    0;
 7B3D   :    0;
 7B3E   :    0;
 7B3F   :    0;
 7B40   :    0;
 7B41   :    0;
 7B42   :    0;
 7B43   :    0;
 7B44   :    0;
 7B45   :    0;
 7B46   :    0;
 7B47   :    0;
 7B48   :    0;
 7B49   :    0;
 7B4A   :    0;
 7B4B   :    0;
 7B4C   :    0;
 7B4D   :    0;
 7B4E   :    0;
 7B4F   :    0;
 7B50   :    0;
 7B51   :    0;
 7B52   :    0;
 7B53   :    0;
 7B54   :    0;
 7B55   :    0;
 7B56   :    0;
 7B57   :    0;
 7B58   :    0;
 7B59   :    0;
 7B5A   :    0;
 7B5B   :    0;
 7B5C   :    0;
 7B5D   :    0;
 7B5E   :    0;
 7B5F   :    0;
 7B60   :    0;
 7B61   :    0;
 7B62   :    0;
 7B63   :    0;
 7B64   :    0;
 7B65   :    0;
 7B66   :    0;
 7B67   :    0;
 7B68   :    0;
 7B69   :    0;
 7B6A   :    0;
 7B6B   :    0;
 7B6C   :    0;
 7B6D   :    0;
 7B6E   :    0;
 7B6F   :    0;
 7B70   :    0;
 7B71   :    0;
 7B72   :    0;
 7B73   :    0;
 7B74   :    0;
 7B75   :    0;
 7B76   :    0;
 7B77   :    0;
 7B78   :    0;
 7B79   :    0;
 7B7A   :    0;
 7B7B   :    0;
 7B7C   :    0;
 7B7D   :    0;
 7B7E   :    0;
 7B7F   :    0;
 7B80   :    0;
 7B81   :    0;
 7B82   :    0;
 7B83   :    0;
 7B84   :    0;
 7B85   :    0;
 7B86   :    0;
 7B87   :    0;
 7B88   :    0;
 7B89   :    0;
 7B8A   :    0;
 7B8B   :    0;
 7B8C   :    0;
 7B8D   :    0;
 7B8E   :    0;
 7B8F   :    0;
 7B90   :    0;
 7B91   :    0;
 7B92   :    0;
 7B93   :    0;
 7B94   :    0;
 7B95   :    0;
 7B96   :    0;
 7B97   :    0;
 7B98   :    0;
 7B99   :    0;
 7B9A   :    0;
 7B9B   :    0;
 7B9C   :    0;
 7B9D   :    0;
 7B9E   :    0;
 7B9F   :    0;
 7BA0   :    0;
 7BA1   :    0;
 7BA2   :    0;
 7BA3   :    0;
 7BA4   :    0;
 7BA5   :    0;
 7BA6   :    0;
 7BA7   :    0;
 7BA8   :    0;
 7BA9   :    0;
 7BAA   :    0;
 7BAB   :    0;
 7BAC   :    0;
 7BAD   :    0;
 7BAE   :    0;
 7BAF   :    0;
 7BB0   :    0;
 7BB1   :    0;
 7BB2   :    0;
 7BB3   :    0;
 7BB4   :    0;
 7BB5   :    0;
 7BB6   :    0;
 7BB7   :    0;
 7BB8   :    0;
 7BB9   :    0;
 7BBA   :    0;
 7BBB   :    0;
 7BBC   :    0;
 7BBD   :    0;
 7BBE   :    0;
 7BBF   :    0;
 7BC0   :    0;
 7BC1   :    0;
 7BC2   :    0;
 7BC3   :    0;
 7BC4   :    0;
 7BC5   :    0;
 7BC6   :    0;
 7BC7   :    0;
 7BC8   :    0;
 7BC9   :    0;
 7BCA   :    0;
 7BCB   :    0;
 7BCC   :    0;
 7BCD   :    0;
 7BCE   :    0;
 7BCF   :    0;
 7BD0   :    0;
 7BD1   :    0;
 7BD2   :    0;
 7BD3   :    0;
 7BD4   :    0;
 7BD5   :    0;
 7BD6   :    0;
 7BD7   :    0;
 7BD8   :    0;
 7BD9   :    0;
 7BDA   :    0;
 7BDB   :    0;
 7BDC   :    0;
 7BDD   :    0;
 7BDE   :    0;
 7BDF   :    0;
 7BE0   :    0;
 7BE1   :    0;
 7BE2   :    0;
 7BE3   :    0;
 7BE4   :    0;
 7BE5   :    0;
 7BE6   :    0;
 7BE7   :    0;
 7BE8   :    0;
 7BE9   :    0;
 7BEA   :    0;
 7BEB   :    0;
 7BEC   :    0;
 7BED   :    0;
 7BEE   :    0;
 7BEF   :    0;
 7BF0   :    0;
 7BF1   :    0;
 7BF2   :    0;
 7BF3   :    0;
 7BF4   :    0;
 7BF5   :    0;
 7BF6   :    0;
 7BF7   :    0;
 7BF8   :    0;
 7BF9   :    0;
 7BFA   :    0;
 7BFB   :    0;
 7BFC   :    0;
 7BFD   :    0;
 7BFE   :    0;
 7BFF   :    0;
 7C00   :    0;
 7C01   :    0;
 7C02   :    0;
 7C03   :    0;
 7C04   :    0;
 7C05   :    0;
 7C06   :    0;
 7C07   :    0;
 7C08   :    0;
 7C09   :    0;
 7C0A   :    0;
 7C0B   :    0;
 7C0C   :    0;
 7C0D   :    0;
 7C0E   :    0;
 7C0F   :    0;
 7C10   :    0;
 7C11   :    0;
 7C12   :    0;
 7C13   :    0;
 7C14   :    0;
 7C15   :    0;
 7C16   :    0;
 7C17   :    0;
 7C18   :    0;
 7C19   :    0;
 7C1A   :    0;
 7C1B   :    0;
 7C1C   :    0;
 7C1D   :    0;
 7C1E   :    0;
 7C1F   :    0;
 7C20   :    0;
 7C21   :    0;
 7C22   :    0;
 7C23   :    0;
 7C24   :    0;
 7C25   :    0;
 7C26   :    0;
 7C27   :    0;
 7C28   :    0;
 7C29   :    0;
 7C2A   :    0;
 7C2B   :    0;
 7C2C   :    0;
 7C2D   :    0;
 7C2E   :    0;
 7C2F   :    0;
 7C30   :    0;
 7C31   :    0;
 7C32   :    0;
 7C33   :    0;
 7C34   :    0;
 7C35   :    0;
 7C36   :    0;
 7C37   :    0;
 7C38   :    0;
 7C39   :    0;
 7C3A   :    0;
 7C3B   :    0;
 7C3C   :    0;
 7C3D   :    0;
 7C3E   :    0;
 7C3F   :    0;
 7C40   :    0;
 7C41   :    0;
 7C42   :    0;
 7C43   :    0;
 7C44   :    0;
 7C45   :    0;
 7C46   :    0;
 7C47   :    0;
 7C48   :    0;
 7C49   :    0;
 7C4A   :    0;
 7C4B   :    0;
 7C4C   :    0;
 7C4D   :    0;
 7C4E   :    0;
 7C4F   :    0;
 7C50   :    0;
 7C51   :    0;
 7C52   :    0;
 7C53   :    0;
 7C54   :    0;
 7C55   :    0;
 7C56   :    0;
 7C57   :    0;
 7C58   :    0;
 7C59   :    0;
 7C5A   :    0;
 7C5B   :    0;
 7C5C   :    0;
 7C5D   :    0;
 7C5E   :    0;
 7C5F   :    0;
 7C60   :    0;
 7C61   :    0;
 7C62   :    0;
 7C63   :    0;
 7C64   :    0;
 7C65   :    0;
 7C66   :    0;
 7C67   :    0;
 7C68   :    0;
 7C69   :    0;
 7C6A   :    0;
 7C6B   :    0;
 7C6C   :    0;
 7C6D   :    0;
 7C6E   :    0;
 7C6F   :    0;
 7C70   :    0;
 7C71   :    0;
 7C72   :    0;
 7C73   :    0;
 7C74   :    0;
 7C75   :    0;
 7C76   :    0;
 7C77   :    0;
 7C78   :    0;
 7C79   :    0;
 7C7A   :    0;
 7C7B   :    0;
 7C7C   :    0;
 7C7D   :    0;
 7C7E   :    0;
 7C7F   :    0;
 7C80   :    0;
 7C81   :    0;
 7C82   :    0;
 7C83   :    0;
 7C84   :    0;
 7C85   :    0;
 7C86   :    0;
 7C87   :    0;
 7C88   :    0;
 7C89   :    0;
 7C8A   :    0;
 7C8B   :    0;
 7C8C   :    0;
 7C8D   :    0;
 7C8E   :    0;
 7C8F   :    0;
 7C90   :    0;
 7C91   :    0;
 7C92   :    0;
 7C93   :    0;
 7C94   :    0;
 7C95   :    0;
 7C96   :    0;
 7C97   :    0;
 7C98   :    0;
 7C99   :    0;
 7C9A   :    0;
 7C9B   :    0;
 7C9C   :    0;
 7C9D   :    0;
 7C9E   :    0;
 7C9F   :    0;
 7CA0   :    0;
 7CA1   :    0;
 7CA2   :    0;
 7CA3   :    0;
 7CA4   :    0;
 7CA5   :    0;
 7CA6   :    0;
 7CA7   :    0;
 7CA8   :    0;
 7CA9   :    0;
 7CAA   :    0;
 7CAB   :    0;
 7CAC   :    0;
 7CAD   :    0;
 7CAE   :    0;
 7CAF   :    0;
 7CB0   :    0;
 7CB1   :    0;
 7CB2   :    0;
 7CB3   :    0;
 7CB4   :    0;
 7CB5   :    0;
 7CB6   :    0;
 7CB7   :    0;
 7CB8   :    0;
 7CB9   :    0;
 7CBA   :    0;
 7CBB   :    0;
 7CBC   :    0;
 7CBD   :    0;
 7CBE   :    0;
 7CBF   :    0;
 7CC0   :    0;
 7CC1   :    0;
 7CC2   :    0;
 7CC3   :    0;
 7CC4   :    0;
 7CC5   :    0;
 7CC6   :    0;
 7CC7   :    0;
 7CC8   :    0;
 7CC9   :    0;
 7CCA   :    0;
 7CCB   :    0;
 7CCC   :    0;
 7CCD   :    0;
 7CCE   :    0;
 7CCF   :    0;
 7CD0   :    0;
 7CD1   :    0;
 7CD2   :    0;
 7CD3   :    0;
 7CD4   :    0;
 7CD5   :    0;
 7CD6   :    0;
 7CD7   :    0;
 7CD8   :    0;
 7CD9   :    0;
 7CDA   :    0;
 7CDB   :    0;
 7CDC   :    0;
 7CDD   :    0;
 7CDE   :    0;
 7CDF   :    0;
 7CE0   :    0;
 7CE1   :    0;
 7CE2   :    0;
 7CE3   :    0;
 7CE4   :    0;
 7CE5   :    0;
 7CE6   :    0;
 7CE7   :    0;
 7CE8   :    0;
 7CE9   :    0;
 7CEA   :    0;
 7CEB   :    0;
 7CEC   :    0;
 7CED   :    0;
 7CEE   :    0;
 7CEF   :    0;
 7CF0   :    0;
 7CF1   :    0;
 7CF2   :    0;
 7CF3   :    0;
 7CF4   :    0;
 7CF5   :    0;
 7CF6   :    0;
 7CF7   :    0;
 7CF8   :    0;
 7CF9   :    0;
 7CFA   :    0;
 7CFB   :    0;
 7CFC   :    0;
 7CFD   :    0;
 7CFE   :    0;
 7CFF   :    0;
 7D00   :    0;
 7D01   :    0;
 7D02   :    0;
 7D03   :    0;
 7D04   :    0;
 7D05   :    0;
 7D06   :    0;
 7D07   :    0;
 7D08   :    0;
 7D09   :    0;
 7D0A   :    0;
 7D0B   :    0;
 7D0C   :    0;
 7D0D   :    0;
 7D0E   :    0;
 7D0F   :    0;
 7D10   :    0;
 7D11   :    0;
 7D12   :    0;
 7D13   :    0;
 7D14   :    0;
 7D15   :    0;
 7D16   :    0;
 7D17   :    0;
 7D18   :    0;
 7D19   :    0;
 7D1A   :    0;
 7D1B   :    0;
 7D1C   :    0;
 7D1D   :    0;
 7D1E   :    0;
 7D1F   :    0;
 7D20   :    0;
 7D21   :    0;
 7D22   :    0;
 7D23   :    0;
 7D24   :    0;
 7D25   :    0;
 7D26   :    0;
 7D27   :    0;
 7D28   :    0;
 7D29   :    0;
 7D2A   :    0;
 7D2B   :    0;
 7D2C   :    0;
 7D2D   :    0;
 7D2E   :    0;
 7D2F   :    0;
 7D30   :    0;
 7D31   :    0;
 7D32   :    0;
 7D33   :    0;
 7D34   :    0;
 7D35   :    0;
 7D36   :    0;
 7D37   :    0;
 7D38   :    0;
 7D39   :    0;
 7D3A   :    0;
 7D3B   :    0;
 7D3C   :    0;
 7D3D   :    0;
 7D3E   :    0;
 7D3F   :    0;
 7D40   :    0;
 7D41   :    0;
 7D42   :    0;
 7D43   :    0;
 7D44   :    0;
 7D45   :    0;
 7D46   :    0;
 7D47   :    0;
 7D48   :    0;
 7D49   :    0;
 7D4A   :    0;
 7D4B   :    0;
 7D4C   :    0;
 7D4D   :    0;
 7D4E   :    0;
 7D4F   :    0;
 7D50   :    0;
 7D51   :    0;
 7D52   :    0;
 7D53   :    0;
 7D54   :    0;
 7D55   :    0;
 7D56   :    0;
 7D57   :    0;
 7D58   :    0;
 7D59   :    0;
 7D5A   :    0;
 7D5B   :    0;
 7D5C   :    0;
 7D5D   :    0;
 7D5E   :    0;
 7D5F   :    0;
 7D60   :    0;
 7D61   :    0;
 7D62   :    0;
 7D63   :    0;
 7D64   :    0;
 7D65   :    0;
 7D66   :    0;
 7D67   :    0;
 7D68   :    0;
 7D69   :    0;
 7D6A   :    0;
 7D6B   :    0;
 7D6C   :    0;
 7D6D   :    0;
 7D6E   :    0;
 7D6F   :    0;
 7D70   :    0;
 7D71   :    0;
 7D72   :    0;
 7D73   :    0;
 7D74   :    0;
 7D75   :    0;
 7D76   :    0;
 7D77   :    0;
 7D78   :    0;
 7D79   :    0;
 7D7A   :    0;
 7D7B   :    0;
 7D7C   :    0;
 7D7D   :    0;
 7D7E   :    0;
 7D7F   :    0;
 7D80   :    0;
 7D81   :    0;
 7D82   :    0;
 7D83   :    0;
 7D84   :    0;
 7D85   :    0;
 7D86   :    0;
 7D87   :    0;
 7D88   :    0;
 7D89   :    0;
 7D8A   :    0;
 7D8B   :    0;
 7D8C   :    0;
 7D8D   :    0;
 7D8E   :    0;
 7D8F   :    0;
 7D90   :    0;
 7D91   :    0;
 7D92   :    0;
 7D93   :    0;
 7D94   :    0;
 7D95   :    0;
 7D96   :    0;
 7D97   :    0;
 7D98   :    0;
 7D99   :    0;
 7D9A   :    0;
 7D9B   :    0;
 7D9C   :    0;
 7D9D   :    0;
 7D9E   :    0;
 7D9F   :    0;
 7DA0   :    0;
 7DA1   :    0;
 7DA2   :    0;
 7DA3   :    0;
 7DA4   :    0;
 7DA5   :    0;
 7DA6   :    0;
 7DA7   :    0;
 7DA8   :    0;
 7DA9   :    0;
 7DAA   :    0;
 7DAB   :    0;
 7DAC   :    0;
 7DAD   :    0;
 7DAE   :    0;
 7DAF   :    0;
 7DB0   :    0;
 7DB1   :    0;
 7DB2   :    0;
 7DB3   :    0;
 7DB4   :    0;
 7DB5   :    0;
 7DB6   :    0;
 7DB7   :    0;
 7DB8   :    0;
 7DB9   :    0;
 7DBA   :    0;
 7DBB   :    0;
 7DBC   :    0;
 7DBD   :    0;
 7DBE   :    0;
 7DBF   :    0;
 7DC0   :    0;
 7DC1   :    0;
 7DC2   :    0;
 7DC3   :    0;
 7DC4   :    0;
 7DC5   :    0;
 7DC6   :    0;
 7DC7   :    0;
 7DC8   :    0;
 7DC9   :    0;
 7DCA   :    0;
 7DCB   :    0;
 7DCC   :    0;
 7DCD   :    0;
 7DCE   :    0;
 7DCF   :    0;
 7DD0   :    0;
 7DD1   :    0;
 7DD2   :    0;
 7DD3   :    0;
 7DD4   :    0;
 7DD5   :    0;
 7DD6   :    0;
 7DD7   :    0;
 7DD8   :    0;
 7DD9   :    0;
 7DDA   :    0;
 7DDB   :    0;
 7DDC   :    0;
 7DDD   :    0;
 7DDE   :    0;
 7DDF   :    0;
 7DE0   :    0;
 7DE1   :    0;
 7DE2   :    0;
 7DE3   :    0;
 7DE4   :    0;
 7DE5   :    0;
 7DE6   :    0;
 7DE7   :    0;
 7DE8   :    0;
 7DE9   :    0;
 7DEA   :    0;
 7DEB   :    0;
 7DEC   :    0;
 7DED   :    0;
 7DEE   :    0;
 7DEF   :    0;
 7DF0   :    0;
 7DF1   :    0;
 7DF2   :    0;
 7DF3   :    0;
 7DF4   :    0;
 7DF5   :    0;
 7DF6   :    0;
 7DF7   :    0;
 7DF8   :    0;
 7DF9   :    0;
 7DFA   :    0;
 7DFB   :    0;
 7DFC   :    0;
 7DFD   :    0;
 7DFE   :    0;
 7DFF   :    0;
 7E00   :    0;
 7E01   :    0;
 7E02   :    0;
 7E03   :    0;
 7E04   :    0;
 7E05   :    0;
 7E06   :    0;
 7E07   :    0;
 7E08   :    0;
 7E09   :    0;
 7E0A   :    0;
 7E0B   :    0;
 7E0C   :    0;
 7E0D   :    0;
 7E0E   :    0;
 7E0F   :    0;
 7E10   :    0;
 7E11   :    0;
 7E12   :    0;
 7E13   :    0;
 7E14   :    0;
 7E15   :    0;
 7E16   :    0;
 7E17   :    0;
 7E18   :    0;
 7E19   :    0;
 7E1A   :    0;
 7E1B   :    0;
 7E1C   :    0;
 7E1D   :    0;
 7E1E   :    0;
 7E1F   :    0;
 7E20   :    0;
 7E21   :    0;
 7E22   :    0;
 7E23   :    0;
 7E24   :    0;
 7E25   :    0;
 7E26   :    0;
 7E27   :    0;
 7E28   :    0;
 7E29   :    0;
 7E2A   :    0;
 7E2B   :    0;
 7E2C   :    0;
 7E2D   :    0;
 7E2E   :    0;
 7E2F   :    0;
 7E30   :    0;
 7E31   :    0;
 7E32   :    0;
 7E33   :    0;
 7E34   :    0;
 7E35   :    0;
 7E36   :    0;
 7E37   :    0;
 7E38   :    0;
 7E39   :    0;
 7E3A   :    0;
 7E3B   :    0;
 7E3C   :    0;
 7E3D   :    0;
 7E3E   :    0;
 7E3F   :    0;
 7E40   :    0;
 7E41   :    0;
 7E42   :    0;
 7E43   :    0;
 7E44   :    0;
 7E45   :    0;
 7E46   :    0;
 7E47   :    0;
 7E48   :    0;
 7E49   :    0;
 7E4A   :    0;
 7E4B   :    0;
 7E4C   :    0;
 7E4D   :    0;
 7E4E   :    0;
 7E4F   :    0;
 7E50   :    0;
 7E51   :    0;
 7E52   :    0;
 7E53   :    0;
 7E54   :    0;
 7E55   :    0;
 7E56   :    0;
 7E57   :    0;
 7E58   :    0;
 7E59   :    0;
 7E5A   :    0;
 7E5B   :    0;
 7E5C   :    0;
 7E5D   :    0;
 7E5E   :    0;
 7E5F   :    0;
 7E60   :    0;
 7E61   :    0;
 7E62   :    0;
 7E63   :    0;
 7E64   :    0;
 7E65   :    0;
 7E66   :    0;
 7E67   :    0;
 7E68   :    0;
 7E69   :    0;
 7E6A   :    0;
 7E6B   :    0;
 7E6C   :    0;
 7E6D   :    0;
 7E6E   :    0;
 7E6F   :    0;
 7E70   :    0;
 7E71   :    0;
 7E72   :    0;
 7E73   :    0;
 7E74   :    0;
 7E75   :    0;
 7E76   :    0;
 7E77   :    0;
 7E78   :    0;
 7E79   :    0;
 7E7A   :    0;
 7E7B   :    0;
 7E7C   :    0;
 7E7D   :    0;
 7E7E   :    0;
 7E7F   :    0;
 7E80   :    0;
 7E81   :    0;
 7E82   :    0;
 7E83   :    0;
 7E84   :    0;
 7E85   :    0;
 7E86   :    0;
 7E87   :    0;
 7E88   :    0;
 7E89   :    0;
 7E8A   :    0;
 7E8B   :    0;
 7E8C   :    0;
 7E8D   :    0;
 7E8E   :    0;
 7E8F   :    0;
 7E90   :    0;
 7E91   :    0;
 7E92   :    0;
 7E93   :    0;
 7E94   :    0;
 7E95   :    0;
 7E96   :    0;
 7E97   :    0;
 7E98   :    0;
 7E99   :    0;
 7E9A   :    0;
 7E9B   :    0;
 7E9C   :    0;
 7E9D   :    0;
 7E9E   :    0;
 7E9F   :    0;
 7EA0   :    0;
 7EA1   :    0;
 7EA2   :    0;
 7EA3   :    0;
 7EA4   :    0;
 7EA5   :    0;
 7EA6   :    0;
 7EA7   :    0;
 7EA8   :    0;
 7EA9   :    0;
 7EAA   :    0;
 7EAB   :    0;
 7EAC   :    0;
 7EAD   :    0;
 7EAE   :    0;
 7EAF   :    0;
 7EB0   :    0;
 7EB1   :    0;
 7EB2   :    0;
 7EB3   :    0;
 7EB4   :    0;
 7EB5   :    0;
 7EB6   :    0;
 7EB7   :    0;
 7EB8   :    0;
 7EB9   :    0;
 7EBA   :    0;
 7EBB   :    0;
 7EBC   :    0;
 7EBD   :    0;
 7EBE   :    0;
 7EBF   :    0;
 7EC0   :    0;
 7EC1   :    0;
 7EC2   :    0;
 7EC3   :    0;
 7EC4   :    0;
 7EC5   :    0;
 7EC6   :    0;
 7EC7   :    0;
 7EC8   :    0;
 7EC9   :    0;
 7ECA   :    0;
 7ECB   :    0;
 7ECC   :    0;
 7ECD   :    0;
 7ECE   :    0;
 7ECF   :    0;
 7ED0   :    0;
 7ED1   :    0;
 7ED2   :    0;
 7ED3   :    0;
 7ED4   :    0;
 7ED5   :    0;
 7ED6   :    0;
 7ED7   :    0;
 7ED8   :    0;
 7ED9   :    0;
 7EDA   :    0;
 7EDB   :    0;
 7EDC   :    0;
 7EDD   :    0;
 7EDE   :    0;
 7EDF   :    0;
 7EE0   :    0;
 7EE1   :    0;
 7EE2   :    0;
 7EE3   :    0;
 7EE4   :    0;
 7EE5   :    0;
 7EE6   :    0;
 7EE7   :    0;
 7EE8   :    0;
 7EE9   :    0;
 7EEA   :    0;
 7EEB   :    0;
 7EEC   :    0;
 7EED   :    0;
 7EEE   :    0;
 7EEF   :    0;
 7EF0   :    0;
 7EF1   :    0;
 7EF2   :    0;
 7EF3   :    0;
 7EF4   :    0;
 7EF5   :    0;
 7EF6   :    0;
 7EF7   :    0;
 7EF8   :    0;
 7EF9   :    0;
 7EFA   :    0;
 7EFB   :    0;
 7EFC   :    0;
 7EFD   :    0;
 7EFE   :    0;
 7EFF   :    0;
 7F00   :    0;
 7F01   :    0;
 7F02   :    0;
 7F03   :    0;
 7F04   :    0;
 7F05   :    0;
 7F06   :    0;
 7F07   :    0;
 7F08   :    0;
 7F09   :    0;
 7F0A   :    0;
 7F0B   :    0;
 7F0C   :    0;
 7F0D   :    0;
 7F0E   :    0;
 7F0F   :    0;
 7F10   :    0;
 7F11   :    0;
 7F12   :    0;
 7F13   :    0;
 7F14   :    0;
 7F15   :    0;
 7F16   :    0;
 7F17   :    0;
 7F18   :    0;
 7F19   :    0;
 7F1A   :    0;
 7F1B   :    0;
 7F1C   :    0;
 7F1D   :    0;
 7F1E   :    0;
 7F1F   :    0;
 7F20   :    0;
 7F21   :    0;
 7F22   :    0;
 7F23   :    0;
 7F24   :    0;
 7F25   :    0;
 7F26   :    0;
 7F27   :    0;
 7F28   :    0;
 7F29   :    0;
 7F2A   :    0;
 7F2B   :    0;
 7F2C   :    0;
 7F2D   :    0;
 7F2E   :    0;
 7F2F   :    0;
 7F30   :    0;
 7F31   :    0;
 7F32   :    0;
 7F33   :    0;
 7F34   :    0;
 7F35   :    0;
 7F36   :    0;
 7F37   :    0;
 7F38   :    0;
 7F39   :    0;
 7F3A   :    0;
 7F3B   :    0;
 7F3C   :    0;
 7F3D   :    0;
 7F3E   :    0;
 7F3F   :    0;
 7F40   :    0;
 7F41   :    0;
 7F42   :    0;
 7F43   :    0;
 7F44   :    0;
 7F45   :    0;
 7F46   :    0;
 7F47   :    0;
 7F48   :    0;
 7F49   :    0;
 7F4A   :    0;
 7F4B   :    0;
 7F4C   :    0;
 7F4D   :    0;
 7F4E   :    0;
 7F4F   :    0;
 7F50   :    0;
 7F51   :    0;
 7F52   :    0;
 7F53   :    0;
 7F54   :    0;
 7F55   :    0;
 7F56   :    0;
 7F57   :    0;
 7F58   :    0;
 7F59   :    0;
 7F5A   :    0;
 7F5B   :    0;
 7F5C   :    0;
 7F5D   :    0;
 7F5E   :    0;
 7F5F   :    0;
 7F60   :    0;
 7F61   :    0;
 7F62   :    0;
 7F63   :    0;
 7F64   :    0;
 7F65   :    0;
 7F66   :    0;
 7F67   :    0;
 7F68   :    0;
 7F69   :    0;
 7F6A   :    0;
 7F6B   :    0;
 7F6C   :    0;
 7F6D   :    0;
 7F6E   :    0;
 7F6F   :    0;
 7F70   :    0;
 7F71   :    0;
 7F72   :    0;
 7F73   :    0;
 7F74   :    0;
 7F75   :    0;
 7F76   :    0;
 7F77   :    0;
 7F78   :    0;
 7F79   :    0;
 7F7A   :    0;
 7F7B   :    0;
 7F7C   :    0;
 7F7D   :    0;
 7F7E   :    0;
 7F7F   :    0;
 7F80   :    0;
 7F81   :    0;
 7F82   :    0;
 7F83   :    0;
 7F84   :    0;
 7F85   :    0;
 7F86   :    0;
 7F87   :    0;
 7F88   :    0;
 7F89   :    0;
 7F8A   :    0;
 7F8B   :    0;
 7F8C   :    0;
 7F8D   :    0;
 7F8E   :    0;
 7F8F   :    0;
 7F90   :    0;
 7F91   :    0;
 7F92   :    0;
 7F93   :    0;
 7F94   :    0;
 7F95   :    0;
 7F96   :    0;
 7F97   :    0;
 7F98   :    0;
 7F99   :    0;
 7F9A   :    0;
 7F9B   :    0;
 7F9C   :    0;
 7F9D   :    0;
 7F9E   :    0;
 7F9F   :    0;
 7FA0   :    0;
 7FA1   :    0;
 7FA2   :    0;
 7FA3   :    0;
 7FA4   :    0;
 7FA5   :    0;
 7FA6   :    0;
 7FA7   :    0;
 7FA8   :    0;
 7FA9   :    0;
 7FAA   :    0;
 7FAB   :    0;
 7FAC   :    0;
 7FAD   :    0;
 7FAE   :    0;
 7FAF   :    0;
 7FB0   :    0;
 7FB1   :    0;
 7FB2   :    0;
 7FB3   :    0;
 7FB4   :    0;
 7FB5   :    0;
 7FB6   :    0;
 7FB7   :    0;
 7FB8   :    0;
 7FB9   :    0;
 7FBA   :    0;
 7FBB   :    0;
 7FBC   :    0;
 7FBD   :    0;
 7FBE   :    0;
 7FBF   :    0;
 7FC0   :    0;
 7FC1   :    0;
 7FC2   :    0;
 7FC3   :    0;
 7FC4   :    0;
 7FC5   :    0;
 7FC6   :    0;
 7FC7   :    0;
 7FC8   :    0;
 7FC9   :    0;
 7FCA   :    0;
 7FCB   :    0;
 7FCC   :    0;
 7FCD   :    0;
 7FCE   :    0;
 7FCF   :    0;
 7FD0   :    0;
 7FD1   :    0;
 7FD2   :    0;
 7FD3   :    0;
 7FD4   :    0;
 7FD5   :    0;
 7FD6   :    0;
 7FD7   :    0;
 7FD8   :    0;
 7FD9   :    0;
 7FDA   :    0;
 7FDB   :    0;
 7FDC   :    0;
 7FDD   :    0;
 7FDE   :    0;
 7FDF   :    0;
 7FE0   :    0;
 7FE1   :    0;
 7FE2   :    0;
 7FE3   :    0;
 7FE4   :    0;
 7FE5   :    0;
 7FE6   :    0;
 7FE7   :    0;
 7FE8   :    0;
 7FE9   :    0;
 7FEA   :    0;
 7FEB   :    0;
 7FEC   :    0;
 7FED   :    0;
 7FEE   :    0;
 7FEF   :    0;
 7FF0   :    0;
 7FF1   :    0;
 7FF2   :    0;
 7FF3   :    0;
 7FF4   :    0;
 7FF5   :    0;
 7FF6   :    0;
 7FF7   :    0;
 7FF8   :    0;
 7FF9   :    0;
 7FFA   :    3;
 7FFB   :   D0;
 7FFC   :    0;
 7FFD   :   D0;
 7FFE   :   12;
 7FFF   :   D0;
END; 