-- Copyright (C) 1991-2013 Altera Corporation
-- Your use of Altera Corporation's design tools, logic functions 
-- and other software and tools, and its AMPP partner logic 
-- functions, and any output files from any of the foregoing 
-- (including device programming or simulation files), and any 
-- associated documentation or information are expressly subject 
-- to the terms and conditions of the Altera Program License 
-- Subscription Agreement, Altera MegaCore Function License 
-- Agreement, or other applicable license agreement, including, 
-- without limitation, that your use is for the sole purpose of 
-- programming logic devices manufactured by Altera and sold by 
-- Altera or its authorized distributors.  Please refer to the 
-- applicable agreement for further details.

-- Quartus II generated Memory Initialization File (.mif)

WIDTH=8;
DEPTH=32768;

ADDRESS_RADIX=HEX;
DATA_RADIX=HEX;

CONTENT BEGIN    
    0   :   78;
    1   :   D8;
    2   :   A9;
    3   :   10;
    4   :   8D;
    5   :    0;
    6   :   20;
    7   :   A2;
    8   :   FF;
    9   :   9A;
    A   :   AD;
    B   :    2;
    C   :   20;
    D   :   10;
    E   :   FB;
    F   :   AD;
   10   :    2;
   11   :   20;
   12   :   10;
   13   :   FB;
   14   :   A0;
   15   :   FE;
   16   :   A2;
   17   :    5;
   18   :   BD;
   19   :   D7;
   1A   :    7;
   1B   :   C9;
   1C   :    A;
   1D   :   B0;
   1E   :    C;
   1F   :   CA;
   20   :   10;
   21   :   F6;
   22   :   AD;
   23   :   FF;
   24   :    7;
   25   :   C9;
   26   :   A5;
   27   :   D0;
   28   :    2;
   29   :   A0;
   2A   :   D6;
   2B   :   20;
   2C   :   CC;
   2D   :   90;
   2E   :   8D;
   2F   :   11;
   30   :   40;
   31   :   8D;
   32   :   70;
   33   :    7;
   34   :   A9;
   35   :   A5;
   36   :   8D;
   37   :   FF;
   38   :    7;
   39   :   8D;
   3A   :   A7;
   3B   :    7;
   3C   :   A9;
   3D   :    F;
   3E   :   8D;
   3F   :   15;
   40   :   40;
   41   :   A9;
   42   :    6;
   43   :   8D;
   44   :    1;
   45   :   20;
   46   :   20;
   47   :   20;
   48   :   82;
   49   :   20;
   4A   :   19;
   4B   :   8E;
   4C   :   EE;
   4D   :   74;
   4E   :    7;
   4F   :   AD;
   50   :   78;
   51   :    7;
   52   :    9;
   53   :   80;
   54   :   20;
   55   :   ED;
   56   :   8E;
   57   :   4C;
   58   :   57;
   59   :   80;
   5A   :    1;
   5B   :   A4;
   5C   :   C8;
   5D   :   EC;
   5E   :   10;
   5F   :    0;
   60   :   41;
   61   :   41;
   62   :   4C;
   63   :   34;
   64   :   3C;
   65   :   44;
   66   :   54;
   67   :   68;
   68   :   7C;
   69   :   A8;
   6A   :   BF;
   6B   :   DE;
   6C   :   EF;
   6D   :    3;
   6E   :   8C;
   6F   :   8C;
   70   :   8C;
   71   :   8D;
   72   :    3;
   73   :    3;
   74   :    3;
   75   :   8D;
   76   :   8D;
   77   :   8D;
   78   :   8D;
   79   :   8D;
   7A   :   8D;
   7B   :   8D;
   7C   :   8D;
   7D   :   8D;
   7E   :   8D;
   7F   :   8D;
   80   :    0;
   81   :   40;
   82   :   AD;
   83   :   78;
   84   :    7;
   85   :   29;
   86   :   7F;
   87   :   8D;
   88   :   78;
   89   :    7;
   8A   :   29;
   8B   :   7E;
   8C   :   8D;
   8D   :    0;
   8E   :   20;
   8F   :   AD;
   90   :   79;
   91   :    7;
   92   :   29;
   93   :   E6;
   94   :   AC;
   95   :   74;
   96   :    7;
   97   :   D0;
   98   :    5;
   99   :   AD;
   9A   :   79;
   9B   :    7;
   9C   :    9;
   9D   :   1E;
   9E   :   8D;
   9F   :   79;
   A0   :    7;
   A1   :   29;
   A2   :   E7;
   A3   :   8D;
   A4   :    1;
   A5   :   20;
   A6   :   AE;
   A7   :    2;
   A8   :   20;
   A9   :   A9;
   AA   :    0;
   AB   :   20;
   AC   :   E6;
   AD   :   8E;
   AE   :   8D;
   AF   :    3;
   B0   :   20;
   B1   :   A9;
   B2   :    2;
   B3   :   8D;
   B4   :   14;
   B5   :   40;
   B6   :   AE;
   B7   :   73;
   B8   :    7;
   B9   :   BD;
   BA   :   5A;
   BB   :   80;
   BC   :   85;
   BD   :    0;
   BE   :   BD;
   BF   :   6D;
   C0   :   80;
   C1   :   85;
   C2   :    1;
   C3   :   20;
   C4   :   DD;
   C5   :   8E;
   C6   :   A0;
   C7   :    0;
   C8   :   AE;
   C9   :   73;
   CA   :    7;
   CB   :   E0;
   CC   :    6;
   CD   :   D0;
   CE   :    1;
   CF   :   C8;
   D0   :   BE;
   D1   :   80;
   D2   :   80;
   D3   :   A9;
   D4   :    0;
   D5   :   9D;
   D6   :    0;
   D7   :    3;
   D8   :   9D;
   D9   :    1;
   DA   :    3;
   DB   :   8D;
   DC   :   73;
   DD   :    7;
   DE   :   AD;
   DF   :   79;
   E0   :    7;
   E1   :   8D;
   E2   :    1;
   E3   :   20;
   E4   :   20;
   E5   :   D1;
   E6   :   F2;
   E7   :   20;
   E8   :   5C;
   E9   :   8E;
   EA   :   20;
   EB   :   82;
   EC   :   81;
   ED   :   20;
   EE   :   97;
   EF   :   8F;
   F0   :   AD;
   F1   :   76;
   F2   :    7;
   F3   :   4A;
   F4   :   B0;
   F5   :   25;
   F6   :   AD;
   F7   :   47;
   F8   :    7;
   F9   :   F0;
   FA   :    5;
   FB   :   CE;
   FC   :   47;
   FD   :    7;
   FE   :   D0;
   FF   :   19;
  100   :   A2;
  101   :   14;
  102   :   CE;
  103   :   7F;
  104   :    7;
  105   :   10;
  106   :    7;
  107   :   A9;
  108   :   11;
  109   :   8D;
  10A   :   7F;
  10B   :    7;
  10C   :   A2;
  10D   :   23;
  10E   :   BD;
  10F   :   80;
  110   :    7;
  111   :   F0;
  112   :    3;
  113   :   DE;
  114   :   80;
  115   :    7;
  116   :   CA;
  117   :   10;
  118   :   F5;
  119   :   E6;
  11A   :    9;
  11B   :   A2;
  11C   :    0;
  11D   :   A0;
  11E   :    7;
  11F   :   AD;
  120   :   A7;
  121   :    7;
  122   :   29;
  123   :    2;
  124   :   85;
  125   :    0;
  126   :   AD;
  127   :   A8;
  128   :    7;
  129   :   29;
  12A   :    2;
  12B   :   45;
  12C   :    0;
  12D   :   18;
  12E   :   F0;
  12F   :    1;
  130   :   38;
  131   :   7E;
  132   :   A7;
  133   :    7;
  134   :   E8;
  135   :   88;
  136   :   D0;
  137   :   F9;
  138   :   AD;
  139   :   22;
  13A   :    7;
  13B   :   F0;
  13C   :   1F;
  13D   :   AD;
  13E   :    2;
  13F   :   20;
  140   :   29;
  141   :   40;
  142   :   D0;
  143   :   F9;
  144   :   AD;
  145   :   76;
  146   :    7;
  147   :   4A;
  148   :   B0;
  149   :    6;
  14A   :   20;
  14B   :   23;
  14C   :   82;
  14D   :   20;
  14E   :   C6;
  14F   :   81;
  150   :   AD;
  151   :    2;
  152   :   20;
  153   :   29;
  154   :   40;
  155   :   F0;
  156   :   F9;
  157   :   A0;
  158   :   14;
  159   :   88;
  15A   :   D0;
  15B   :   FD;
  15C   :   AD;
  15D   :   3F;
  15E   :    7;
  15F   :   8D;
  160   :    5;
  161   :   20;
  162   :   AD;
  163   :   40;
  164   :    7;
  165   :   8D;
  166   :    5;
  167   :   20;
  168   :   AD;
  169   :   78;
  16A   :    7;
  16B   :   48;
  16C   :   8D;
  16D   :    0;
  16E   :   20;
  16F   :   AD;
  170   :   76;
  171   :    7;
  172   :   4A;
  173   :   B0;
  174   :    3;
  175   :   20;
  176   :   12;
  177   :   82;
  178   :   AD;
  179   :    2;
  17A   :   20;
  17B   :   68;
  17C   :    9;
  17D   :   80;
  17E   :   8D;
  17F   :    0;
  180   :   20;
  181   :   40;
  182   :   AD;
  183   :   70;
  184   :    7;
  185   :   C9;
  186   :    2;
  187   :   F0;
  188   :    B;
  189   :   C9;
  18A   :    1;
  18B   :   D0;
  18C   :   38;
  18D   :   AD;
  18E   :   72;
  18F   :    7;
  190   :   C9;
  191   :    3;
  192   :   D0;
  193   :   31;
  194   :   AD;
  195   :   77;
  196   :    7;
  197   :   F0;
  198   :    4;
  199   :   CE;
  19A   :   77;
  19B   :    7;
  19C   :   60;
  19D   :   AD;
  19E   :   FC;
  19F   :    6;
  1A0   :   29;
  1A1   :   10;
  1A2   :   F0;
  1A3   :   19;
  1A4   :   AD;
  1A5   :   76;
  1A6   :    7;
  1A7   :   29;
  1A8   :   80;
  1A9   :   D0;
  1AA   :   1A;
  1AB   :   A9;
  1AC   :   2B;
  1AD   :   8D;
  1AE   :   77;
  1AF   :    7;
  1B0   :   AD;
  1B1   :   76;
  1B2   :    7;
  1B3   :   A8;
  1B4   :   C8;
  1B5   :   84;
  1B6   :   FA;
  1B7   :   49;
  1B8   :    1;
  1B9   :    9;
  1BA   :   80;
  1BB   :   D0;
  1BC   :    5;
  1BD   :   AD;
  1BE   :   76;
  1BF   :    7;
  1C0   :   29;
  1C1   :   7F;
  1C2   :   8D;
  1C3   :   76;
  1C4   :    7;
  1C5   :   60;
  1C6   :   AC;
  1C7   :   4E;
  1C8   :    7;
  1C9   :   A9;
  1CA   :   28;
  1CB   :   85;
  1CC   :    0;
  1CD   :   A2;
  1CE   :    E;
  1CF   :   BD;
  1D0   :   E4;
  1D1   :    6;
  1D2   :   C5;
  1D3   :    0;
  1D4   :   90;
  1D5   :    F;
  1D6   :   AC;
  1D7   :   E0;
  1D8   :    6;
  1D9   :   18;
  1DA   :   79;
  1DB   :   E1;
  1DC   :    6;
  1DD   :   90;
  1DE   :    3;
  1DF   :   18;
  1E0   :   65;
  1E1   :    0;
  1E2   :   9D;
  1E3   :   E4;
  1E4   :    6;
  1E5   :   CA;
  1E6   :   10;
  1E7   :   E7;
  1E8   :   AE;
  1E9   :   E0;
  1EA   :    6;
  1EB   :   E8;
  1EC   :   E0;
  1ED   :    3;
  1EE   :   D0;
  1EF   :    2;
  1F0   :   A2;
  1F1   :    0;
  1F2   :   8E;
  1F3   :   E0;
  1F4   :    6;
  1F5   :   A2;
  1F6   :    8;
  1F7   :   A0;
  1F8   :    2;
  1F9   :   B9;
  1FA   :   E9;
  1FB   :    6;
  1FC   :   9D;
  1FD   :   F1;
  1FE   :    6;
  1FF   :   18;
  200   :   69;
  201   :    8;
  202   :   9D;
  203   :   F2;
  204   :    6;
  205   :   18;
  206   :   69;
  207   :    8;
  208   :   9D;
  209   :   F3;
  20A   :    6;
  20B   :   CA;
  20C   :   CA;
  20D   :   CA;
  20E   :   88;
  20F   :   10;
  210   :   E8;
  211   :   60;
  212   :   AD;
  213   :   70;
  214   :    7;
  215   :   20;
  216   :    4;
  217   :   8E;
  218   :   31;
  219   :   82;
  21A   :   DC;
  21B   :   AE;
  21C   :   8B;
  21D   :   83;
  21E   :   18;
  21F   :   92;
  220   :   A0;
  221   :    0;
  222   :   2C;
  223   :   A0;
  224   :    4;
  225   :   A9;
  226   :   F8;
  227   :   99;
  228   :    0;
  229   :    2;
  22A   :   C8;
  22B   :   C8;
  22C   :   C8;
  22D   :   C8;
  22E   :   D0;
  22F   :   F7;
  230   :   60;
  231   :   AD;
  232   :   72;
  233   :    7;
  234   :   20;
  235   :    4;
  236   :   8E;
  237   :   CF;
  238   :   8F;
  239   :   67;
  23A   :   85;
  23B   :   61;
  23C   :   90;
  23D   :   45;
  23E   :   82;
  23F   :    4;
  240   :   20;
  241   :   73;
  242   :    1;
  243   :    0;
  244   :    0;
  245   :   A0;
  246   :    0;
  247   :   AD;
  248   :   FC;
  249   :    6;
  24A   :    D;
  24B   :   FD;
  24C   :    6;
  24D   :   C9;
  24E   :   10;
  24F   :   F0;
  250   :    4;
  251   :   C9;
  252   :   90;
  253   :   D0;
  254   :    3;
  255   :   4C;
  256   :   D8;
  257   :   82;
  258   :   C9;
  259   :   20;
  25A   :   F0;
  25B   :   1A;
  25C   :   AE;
  25D   :   A2;
  25E   :    7;
  25F   :   D0;
  260   :    B;
  261   :   8D;
  262   :   80;
  263   :    7;
  264   :   20;
  265   :   6B;
  266   :   83;
  267   :   B0;
  268   :   60;
  269   :   4C;
  26A   :   C0;
  26B   :   82;
  26C   :   AE;
  26D   :   FC;
  26E   :    7;
  26F   :   F0;
  270   :   4A;
  271   :   C9;
  272   :   40;
  273   :   D0;
  274   :   46;
  275   :   C8;
  276   :   AD;
  277   :   A2;
  278   :    7;
  279   :   F0;
  27A   :   4E;
  27B   :   A9;
  27C   :   18;
  27D   :   8D;
  27E   :   A2;
  27F   :    7;
  280   :   AD;
  281   :   80;
  282   :    7;
  283   :   D0;
  284   :   36;
  285   :   A9;
  286   :   10;
  287   :   8D;
  288   :   80;
  289   :    7;
  28A   :   C0;
  28B   :    1;
  28C   :   F0;
  28D   :    E;
  28E   :   AD;
  28F   :   7A;
  290   :    7;
  291   :   49;
  292   :    1;
  293   :   8D;
  294   :   7A;
  295   :    7;
  296   :   20;
  297   :   25;
  298   :   83;
  299   :   4C;
  29A   :   BB;
  29B   :   82;
  29C   :   AE;
  29D   :   6B;
  29E   :    7;
  29F   :   E8;
  2A0   :   8A;
  2A1   :   29;
  2A2   :    7;
  2A3   :   8D;
  2A4   :   6B;
  2A5   :    7;
  2A6   :   20;
  2A7   :    E;
  2A8   :   83;
  2A9   :   BD;
  2AA   :   3F;
  2AB   :   82;
  2AC   :   9D;
  2AD   :    0;
  2AE   :    3;
  2AF   :   E8;
  2B0   :   E0;
  2B1   :    6;
  2B2   :   30;
  2B3   :   F5;
  2B4   :   AC;
  2B5   :   5F;
  2B6   :    7;
  2B7   :   C8;
  2B8   :   8C;
  2B9   :    4;
  2BA   :    3;
  2BB   :   A9;
  2BC   :    0;
  2BD   :   8D;
  2BE   :   FC;
  2BF   :    6;
  2C0   :   20;
  2C1   :   EA;
  2C2   :   AE;
  2C3   :   A5;
  2C4   :    E;
  2C5   :   C9;
  2C6   :    6;
  2C7   :   D0;
  2C8   :   44;
  2C9   :   A9;
  2CA   :    0;
  2CB   :   8D;
  2CC   :   70;
  2CD   :    7;
  2CE   :   8D;
  2CF   :   72;
  2D0   :    7;
  2D1   :   8D;
  2D2   :   22;
  2D3   :    7;
  2D4   :   EE;
  2D5   :   74;
  2D6   :    7;
  2D7   :   60;
  2D8   :   AC;
  2D9   :   A2;
  2DA   :    7;
  2DB   :   F0;
  2DC   :   EC;
  2DD   :    A;
  2DE   :   90;
  2DF   :    6;
  2E0   :   AD;
  2E1   :   FD;
  2E2   :    7;
  2E3   :   20;
  2E4   :    E;
  2E5   :   83;
  2E6   :   20;
  2E7   :    3;
  2E8   :   9C;
  2E9   :   EE;
  2EA   :   5D;
  2EB   :    7;
  2EC   :   EE;
  2ED   :   64;
  2EE   :    7;
  2EF   :   EE;
  2F0   :   57;
  2F1   :    7;
  2F2   :   EE;
  2F3   :   70;
  2F4   :    7;
  2F5   :   AD;
  2F6   :   FC;
  2F7   :    7;
  2F8   :   8D;
  2F9   :   6A;
  2FA   :    7;
  2FB   :   A9;
  2FC   :    0;
  2FD   :   8D;
  2FE   :   72;
  2FF   :    7;
  300   :   8D;
  301   :   A2;
  302   :    7;
  303   :   A2;
  304   :   17;
  305   :   A9;
  306   :    0;
  307   :   9D;
  308   :   DD;
  309   :    7;
  30A   :   CA;
  30B   :   10;
  30C   :   FA;
  30D   :   60;
  30E   :   8D;
  30F   :   5F;
  310   :    7;
  311   :   8D;
  312   :   66;
  313   :    7;
  314   :   A2;
  315   :    0;
  316   :   8E;
  317   :   60;
  318   :    7;
  319   :   8E;
  31A   :   67;
  31B   :    7;
  31C   :   60;
  31D   :    7;
  31E   :   22;
  31F   :   49;
  320   :   83;
  321   :   CE;
  322   :   24;
  323   :   24;
  324   :    0;
  325   :   A0;
  326   :    7;
  327   :   B9;
  328   :   1D;
  329   :   83;
  32A   :   99;
  32B   :    0;
  32C   :    3;
  32D   :   88;
  32E   :   10;
  32F   :   F7;
  330   :   AD;
  331   :   7A;
  332   :    7;
  333   :   F0;
  334   :    A;
  335   :   A9;
  336   :   24;
  337   :   8D;
  338   :    4;
  339   :    3;
  33A   :   A9;
  33B   :   CE;
  33C   :   8D;
  33D   :    6;
  33E   :    3;
  33F   :   60;
  340   :    1;
  341   :   80;
  342   :    2;
  343   :   81;
  344   :   41;
  345   :   80;
  346   :    1;
  347   :   42;
  348   :   C2;
  349   :    2;
  34A   :   80;
  34B   :   41;
  34C   :   C1;
  34D   :   41;
  34E   :   C1;
  34F   :    1;
  350   :   C1;
  351   :    1;
  352   :    2;
  353   :   80;
  354   :    0;
  355   :   9B;
  356   :   10;
  357   :   18;
  358   :    5;
  359   :   2C;
  35A   :   20;
  35B   :   24;
  35C   :   15;
  35D   :   5A;
  35E   :   10;
  35F   :   20;
  360   :   28;
  361   :   30;
  362   :   20;
  363   :   10;
  364   :   80;
  365   :   20;
  366   :   30;
  367   :   30;
  368   :    1;
  369   :   FF;
  36A   :    0;
  36B   :   AE;
  36C   :   17;
  36D   :    7;
  36E   :   AD;
  36F   :   18;
  370   :    7;
  371   :   D0;
  372   :    D;
  373   :   E8;
  374   :   EE;
  375   :   17;
  376   :    7;
  377   :   38;
  378   :   BD;
  379   :   54;
  37A   :   83;
  37B   :   8D;
  37C   :   18;
  37D   :    7;
  37E   :   F0;
  37F   :    A;
  380   :   BD;
  381   :   3F;
  382   :   83;
  383   :   8D;
  384   :   FC;
  385   :    6;
  386   :   CE;
  387   :   18;
  388   :    7;
  389   :   18;
  38A   :   60;
  38B   :   20;
  38C   :   A0;
  38D   :   83;
  38E   :   AD;
  38F   :   72;
  390   :    7;
  391   :   F0;
  392   :    7;
  393   :   A2;
  394   :    0;
  395   :   86;
  396   :    8;
  397   :   20;
  398   :   4D;
  399   :   C0;
  39A   :   20;
  39B   :   31;
  39C   :   F1;
  39D   :   4C;
  39E   :   F0;
  39F   :   EE;
  3A0   :   AD;
  3A1   :   72;
  3A2   :    7;
  3A3   :   20;
  3A4   :    4;
  3A5   :   8E;
  3A6   :   B4;
  3A7   :   CF;
  3A8   :   B0;
  3A9   :   83;
  3AA   :   BD;
  3AB   :   83;
  3AC   :   F6;
  3AD   :   83;
  3AE   :   61;
  3AF   :   84;
  3B0   :   AE;
  3B1   :   1B;
  3B2   :    7;
  3B3   :   E8;
  3B4   :   86;
  3B5   :   34;
  3B6   :   A9;
  3B7   :    8;
  3B8   :   85;
  3B9   :   FC;
  3BA   :   4C;
  3BB   :   4E;
  3BC   :   87;
  3BD   :   A0;
  3BE   :    0;
  3BF   :   84;
  3C0   :   35;
  3C1   :   A5;
  3C2   :   6D;
  3C3   :   C5;
  3C4   :   34;
  3C5   :   D0;
  3C6   :    6;
  3C7   :   A5;
  3C8   :   86;
  3C9   :   C9;
  3CA   :   60;
  3CB   :   B0;
  3CC   :    3;
  3CD   :   E6;
  3CE   :   35;
  3CF   :   C8;
  3D0   :   98;
  3D1   :   20;
  3D2   :   E6;
  3D3   :   B0;
  3D4   :   AD;
  3D5   :   1A;
  3D6   :    7;
  3D7   :   C5;
  3D8   :   34;
  3D9   :   F0;
  3DA   :   16;
  3DB   :   AD;
  3DC   :   68;
  3DD   :    7;
  3DE   :   18;
  3DF   :   69;
  3E0   :   80;
  3E1   :   8D;
  3E2   :   68;
  3E3   :    7;
  3E4   :   A9;
  3E5   :    1;
  3E6   :   69;
  3E7   :    0;
  3E8   :   A8;
  3E9   :   20;
  3EA   :   C4;
  3EB   :   AF;
  3EC   :   20;
  3ED   :   6F;
  3EE   :   AF;
  3EF   :   E6;
  3F0   :   35;
  3F1   :   A5;
  3F2   :   35;
  3F3   :   F0;
  3F4   :   68;
  3F5   :   60;
  3F6   :   AD;
  3F7   :   49;
  3F8   :    7;
  3F9   :   D0;
  3FA   :   48;
  3FB   :   AD;
  3FC   :   19;
  3FD   :    7;
  3FE   :   F0;
  3FF   :   18;
  400   :   C9;
  401   :    9;
  402   :   B0;
  403   :   3F;
  404   :   AC;
  405   :   5F;
  406   :    7;
  407   :   C0;
  408   :    7;
  409   :   D0;
  40A   :    9;
  40B   :   C9;
  40C   :    3;
  40D   :   90;
  40E   :   34;
  40F   :   E9;
  410   :    1;
  411   :   4C;
  412   :   18;
  413   :   84;
  414   :   C9;
  415   :    2;
  416   :   90;
  417   :   2B;
  418   :   A8;
  419   :   D0;
  41A   :    8;
  41B   :   AD;
  41C   :   53;
  41D   :    7;
  41E   :   F0;
  41F   :   14;
  420   :   C8;
  421   :   D0;
  422   :   11;
  423   :   C8;
  424   :   AD;
  425   :   5F;
  426   :    7;
  427   :   C9;
  428   :    7;
  429   :   F0;
  42A   :    9;
  42B   :   88;
  42C   :   C0;
  42D   :    4;
  42E   :   B0;
  42F   :   26;
  430   :   C0;
  431   :    3;
  432   :   B0;
  433   :    F;
  434   :   C0;
  435   :    3;
  436   :   D0;
  437   :    4;
  438   :   A9;
  439   :    4;
  43A   :   85;
  43B   :   FC;
  43C   :   98;
  43D   :   18;
  43E   :   69;
  43F   :    C;
  440   :   8D;
  441   :   73;
  442   :    7;
  443   :   AD;
  444   :   49;
  445   :    7;
  446   :   18;
  447   :   69;
  448   :    4;
  449   :   8D;
  44A   :   49;
  44B   :    7;
  44C   :   AD;
  44D   :   19;
  44E   :    7;
  44F   :   69;
  450   :    0;
  451   :   8D;
  452   :   19;
  453   :    7;
  454   :   C9;
  455   :    7;
  456   :   90;
  457   :    8;
  458   :   A9;
  459   :    6;
  45A   :   8D;
  45B   :   A1;
  45C   :    7;
  45D   :   EE;
  45E   :   72;
  45F   :    7;
  460   :   60;
  461   :   AD;
  462   :   A1;
  463   :    7;
  464   :   D0;
  465   :   20;
  466   :   AC;
  467   :   5F;
  468   :    7;
  469   :   C0;
  46A   :    7;
  46B   :   B0;
  46C   :   1A;
  46D   :   A9;
  46E   :    0;
  46F   :   8D;
  470   :   60;
  471   :    7;
  472   :   8D;
  473   :   5C;
  474   :    7;
  475   :   8D;
  476   :   72;
  477   :    7;
  478   :   EE;
  479   :   5F;
  47A   :    7;
  47B   :   20;
  47C   :    3;
  47D   :   9C;
  47E   :   EE;
  47F   :   57;
  480   :    7;
  481   :   A9;
  482   :    1;
  483   :   8D;
  484   :   70;
  485   :    7;
  486   :   60;
  487   :   AD;
  488   :   FC;
  489   :    6;
  48A   :    D;
  48B   :   FD;
  48C   :    6;
  48D   :   29;
  48E   :   40;
  48F   :   F0;
  490   :    D;
  491   :   A9;
  492   :    1;
  493   :   8D;
  494   :   FC;
  495   :    7;
  496   :   A9;
  497   :   FF;
  498   :   8D;
  499   :   5A;
  49A   :    7;
  49B   :   20;
  49C   :   48;
  49D   :   92;
  49E   :   60;
  49F   :   FF;
  4A0   :   FF;
  4A1   :   F6;
  4A2   :   FB;
  4A3   :   F7;
  4A4   :   FB;
  4A5   :   F8;
  4A6   :   FB;
  4A7   :   F9;
  4A8   :   FB;
  4A9   :   FA;
  4AA   :   FB;
  4AB   :   F6;
  4AC   :   50;
  4AD   :   F7;
  4AE   :   50;
  4AF   :   F8;
  4B0   :   50;
  4B1   :   F9;
  4B2   :   50;
  4B3   :   FA;
  4B4   :   50;
  4B5   :   FD;
  4B6   :   FE;
  4B7   :   FF;
  4B8   :   41;
  4B9   :   42;
  4BA   :   44;
  4BB   :   45;
  4BC   :   48;
  4BD   :   31;
  4BE   :   32;
  4BF   :   34;
  4C0   :   35;
  4C1   :   38;
  4C2   :    0;
  4C3   :   BD;
  4C4   :   10;
  4C5   :    1;
  4C6   :   F0;
  4C7   :   BE;
  4C8   :   C9;
  4C9   :    B;
  4CA   :   90;
  4CB   :    5;
  4CC   :   A9;
  4CD   :    B;
  4CE   :   9D;
  4CF   :   10;
  4D0   :    1;
  4D1   :   A8;
  4D2   :   BD;
  4D3   :   2C;
  4D4   :    1;
  4D5   :   D0;
  4D6   :    4;
  4D7   :   9D;
  4D8   :   10;
  4D9   :    1;
  4DA   :   60;
  4DB   :   DE;
  4DC   :   2C;
  4DD   :    1;
  4DE   :   C9;
  4DF   :   2B;
  4E0   :   D0;
  4E1   :   1E;
  4E2   :   C0;
  4E3   :    B;
  4E4   :   D0;
  4E5   :    7;
  4E6   :   EE;
  4E7   :   5A;
  4E8   :    7;
  4E9   :   A9;
  4EA   :   40;
  4EB   :   85;
  4EC   :   FE;
  4ED   :   B9;
  4EE   :   B7;
  4EF   :   84;
  4F0   :   4A;
  4F1   :   4A;
  4F2   :   4A;
  4F3   :   4A;
  4F4   :   AA;
  4F5   :   B9;
  4F6   :   B7;
  4F7   :   84;
  4F8   :   29;
  4F9   :    F;
  4FA   :   9D;
  4FB   :   34;
  4FC   :    1;
  4FD   :   20;
  4FE   :   2C;
  4FF   :   BC;
  500   :   BC;
  501   :   E5;
  502   :    6;
  503   :   B5;
  504   :   16;
  505   :   C9;
  506   :   12;
  507   :   F0;
  508   :   22;
  509   :   C9;
  50A   :    D;
  50B   :   F0;
  50C   :   1E;
  50D   :   C9;
  50E   :    5;
  50F   :   F0;
  510   :   12;
  511   :   C9;
  512   :    A;
  513   :   F0;
  514   :   16;
  515   :   C9;
  516   :    B;
  517   :   F0;
  518   :   12;
  519   :   C9;
  51A   :    9;
  51B   :   B0;
  51C   :    6;
  51D   :   B5;
  51E   :   1E;
  51F   :   C9;
  520   :    2;
  521   :   B0;
  522   :    8;
  523   :   AE;
  524   :   EE;
  525   :    3;
  526   :   BC;
  527   :   EC;
  528   :    6;
  529   :   A6;
  52A   :    8;
  52B   :   BD;
  52C   :   1E;
  52D   :    1;
  52E   :   C9;
  52F   :   18;
  530   :   90;
  531   :    5;
  532   :   E9;
  533   :    1;
  534   :   9D;
  535   :   1E;
  536   :    1;
  537   :   BD;
  538   :   1E;
  539   :    1;
  53A   :   E9;
  53B   :    8;
  53C   :   20;
  53D   :   C8;
  53E   :   E5;
  53F   :   BD;
  540   :   17;
  541   :    1;
  542   :   99;
  543   :    3;
  544   :    2;
  545   :   18;
  546   :   69;
  547   :    8;
  548   :   99;
  549   :    7;
  54A   :    2;
  54B   :   A9;
  54C   :    2;
  54D   :   99;
  54E   :    2;
  54F   :    2;
  550   :   99;
  551   :    6;
  552   :    2;
  553   :   BD;
  554   :   10;
  555   :    1;
  556   :    A;
  557   :   AA;
  558   :   BD;
  559   :   9F;
  55A   :   84;
  55B   :   99;
  55C   :    1;
  55D   :    2;
  55E   :   BD;
  55F   :   A0;
  560   :   84;
  561   :   99;
  562   :    5;
  563   :    2;
  564   :   A6;
  565   :    8;
  566   :   60;
  567   :   AD;
  568   :   3C;
  569   :    7;
  56A   :   20;
  56B   :    4;
  56C   :   8E;
  56D   :   8B;
  56E   :   85;
  56F   :   9B;
  570   :   85;
  571   :   52;
  572   :   86;
  573   :   5A;
  574   :   86;
  575   :   93;
  576   :   86;
  577   :   9D;
  578   :   88;
  579   :   A8;
  57A   :   86;
  57B   :   9D;
  57C   :   88;
  57D   :   E6;
  57E   :   86;
  57F   :   BF;
  580   :   85;
  581   :   E3;
  582   :   85;
  583   :   43;
  584   :   86;
  585   :   FF;
  586   :   86;
  587   :   32;
  588   :   87;
  589   :   49;
  58A   :   87;
  58B   :   20;
  58C   :   20;
  58D   :   82;
  58E   :   20;
  58F   :   19;
  590   :   8E;
  591   :   AD;
  592   :   70;
  593   :    7;
  594   :   F0;
  595   :   32;
  596   :   A2;
  597   :    3;
  598   :   4C;
  599   :   C5;
  59A   :   85;
  59B   :   AD;
  59C   :   44;
  59D   :    7;
  59E   :   48;
  59F   :   AD;
  5A0   :   56;
  5A1   :    7;
  5A2   :   48;
  5A3   :   A9;
  5A4   :    0;
  5A5   :   8D;
  5A6   :   56;
  5A7   :    7;
  5A8   :   A9;
  5A9   :    2;
  5AA   :   8D;
  5AB   :   44;
  5AC   :    7;
  5AD   :   20;
  5AE   :   F1;
  5AF   :   85;
  5B0   :   68;
  5B1   :   8D;
  5B2   :   56;
  5B3   :    7;
  5B4   :   68;
  5B5   :   8D;
  5B6   :   44;
  5B7   :    7;
  5B8   :   4C;
  5B9   :   45;
  5BA   :   87;
  5BB   :    1;
  5BC   :    2;
  5BD   :    3;
  5BE   :    4;
  5BF   :   AC;
  5C0   :   4E;
  5C1   :    7;
  5C2   :   BE;
  5C3   :   BB;
  5C4   :   85;
  5C5   :   8E;
  5C6   :   73;
  5C7   :    7;
  5C8   :   4C;
  5C9   :   45;
  5CA   :   87;
  5CB   :    0;
  5CC   :    9;
  5CD   :    A;
  5CE   :    4;
  5CF   :   22;
  5D0   :   22;
  5D1   :    F;
  5D2   :    F;
  5D3   :    F;
  5D4   :   22;
  5D5   :    F;
  5D6   :    F;
  5D7   :   22;
  5D8   :   16;
  5D9   :   27;
  5DA   :   18;
  5DB   :   22;
  5DC   :   30;
  5DD   :   27;
  5DE   :   19;
  5DF   :   22;
  5E0   :   37;
  5E1   :   27;
  5E2   :   16;
  5E3   :   AC;
  5E4   :   44;
  5E5   :    7;
  5E6   :   F0;
  5E7   :    6;
  5E8   :   B9;
  5E9   :   C7;
  5EA   :   85;
  5EB   :   8D;
  5EC   :   73;
  5ED   :    7;
  5EE   :   EE;
  5EF   :   3C;
  5F0   :    7;
  5F1   :   AE;
  5F2   :    0;
  5F3   :    3;
  5F4   :   A0;
  5F5   :    0;
  5F6   :   AD;
  5F7   :   53;
  5F8   :    7;
  5F9   :   F0;
  5FA   :    2;
  5FB   :   A0;
  5FC   :    4;
  5FD   :   AD;
  5FE   :   56;
  5FF   :    7;
  600   :   C9;
  601   :    2;
  602   :   D0;
  603   :    2;
  604   :   A0;
  605   :    8;
  606   :   A9;
  607   :    3;
  608   :   85;
  609   :    0;
  60A   :   B9;
  60B   :   D7;
  60C   :   85;
  60D   :   9D;
  60E   :    4;
  60F   :    3;
  610   :   C8;
  611   :   E8;
  612   :   C6;
  613   :    0;
  614   :   10;
  615   :   F4;
  616   :   AE;
  617   :    0;
  618   :    3;
  619   :   AC;
  61A   :   44;
  61B   :    7;
  61C   :   D0;
  61D   :    3;
  61E   :   AC;
  61F   :   4E;
  620   :    7;
  621   :   B9;
  622   :   CF;
  623   :   85;
  624   :   9D;
  625   :    4;
  626   :    3;
  627   :   A9;
  628   :   3F;
  629   :   9D;
  62A   :    1;
  62B   :    3;
  62C   :   A9;
  62D   :   10;
  62E   :   9D;
  62F   :    2;
  630   :    3;
  631   :   A9;
  632   :    4;
  633   :   9D;
  634   :    3;
  635   :    3;
  636   :   A9;
  637   :    0;
  638   :   9D;
  639   :    8;
  63A   :    3;
  63B   :   8A;
  63C   :   18;
  63D   :   69;
  63E   :    7;
  63F   :   8D;
  640   :    0;
  641   :    3;
  642   :   60;
  643   :   AD;
  644   :   33;
  645   :    7;
  646   :   C9;
  647   :    1;
  648   :   D0;
  649   :    5;
  64A   :   A9;
  64B   :    B;
  64C   :   8D;
  64D   :   73;
  64E   :    7;
  64F   :   4C;
  650   :   45;
  651   :   87;
  652   :   A9;
  653   :    0;
  654   :   20;
  655   :    8;
  656   :   88;
  657   :   4C;
  658   :   45;
  659   :   87;
  65A   :   20;
  65B   :   35;
  65C   :   BC;
  65D   :   AE;
  65E   :    0;
  65F   :    3;
  660   :   A9;
  661   :   20;
  662   :   9D;
  663   :    1;
  664   :    3;
  665   :   A9;
  666   :   73;
  667   :   9D;
  668   :    2;
  669   :    3;
  66A   :   A9;
  66B   :    3;
  66C   :   9D;
  66D   :    3;
  66E   :    3;
  66F   :   AC;
  670   :   5F;
  671   :    7;
  672   :   C8;
  673   :   98;
  674   :   9D;
  675   :    4;
  676   :    3;
  677   :   A9;
  678   :   28;
  679   :   9D;
  67A   :    5;
  67B   :    3;
  67C   :   AC;
  67D   :   5C;
  67E   :    7;
  67F   :   C8;
  680   :   98;
  681   :   9D;
  682   :    6;
  683   :    3;
  684   :   A9;
  685   :    0;
  686   :   9D;
  687   :    7;
  688   :    3;
  689   :   8A;
  68A   :   18;
  68B   :   69;
  68C   :    6;
  68D   :   8D;
  68E   :    0;
  68F   :    3;
  690   :   4C;
  691   :   45;
  692   :   87;
  693   :   AD;
  694   :   59;
  695   :    7;
  696   :   F0;
  697   :    A;
  698   :   A9;
  699   :    0;
  69A   :   8D;
  69B   :   59;
  69C   :    7;
  69D   :   A9;
  69E   :    2;
  69F   :   4C;
  6A0   :   C7;
  6A1   :   86;
  6A2   :   EE;
  6A3   :   3C;
  6A4   :    7;
  6A5   :   4C;
  6A6   :   45;
  6A7   :   87;
  6A8   :   AD;
  6A9   :   70;
  6AA   :    7;
  6AB   :   F0;
  6AC   :   33;
  6AD   :   C9;
  6AE   :    3;
  6AF   :   F0;
  6B0   :   22;
  6B1   :   AD;
  6B2   :   52;
  6B3   :    7;
  6B4   :   D0;
  6B5   :   2A;
  6B6   :   AC;
  6B7   :   4E;
  6B8   :    7;
  6B9   :   C0;
  6BA   :    3;
  6BB   :   F0;
  6BC   :    5;
  6BD   :   AD;
  6BE   :   69;
  6BF   :    7;
  6C0   :   D0;
  6C1   :   1E;
  6C2   :   20;
  6C3   :   AB;
  6C4   :   EF;
  6C5   :   A9;
  6C6   :    1;
  6C7   :   20;
  6C8   :    8;
  6C9   :   88;
  6CA   :   20;
  6CB   :   A5;
  6CC   :   88;
  6CD   :   A9;
  6CE   :    0;
  6CF   :   8D;
  6D0   :   74;
  6D1   :    7;
  6D2   :   60;
  6D3   :   A9;
  6D4   :   12;
  6D5   :   8D;
  6D6   :   A0;
  6D7   :    7;
  6D8   :   A9;
  6D9   :    3;
  6DA   :   20;
  6DB   :    8;
  6DC   :   88;
  6DD   :   4C;
  6DE   :   4E;
  6DF   :   87;
  6E0   :   A9;
  6E1   :    8;
  6E2   :   8D;
  6E3   :   3C;
  6E4   :    7;
  6E5   :   60;
  6E6   :   EE;
  6E7   :   74;
  6E8   :    7;
  6E9   :   20;
  6EA   :   B0;
  6EB   :   92;
  6EC   :   AD;
  6ED   :   1F;
  6EE   :    7;
  6EF   :   D0;
  6F0   :   F8;
  6F1   :   CE;
  6F2   :   1E;
  6F3   :    7;
  6F4   :   10;
  6F5   :    3;
  6F6   :   EE;
  6F7   :   3C;
  6F8   :    7;
  6F9   :   A9;
  6FA   :    6;
  6FB   :   8D;
  6FC   :   73;
  6FD   :    7;
  6FE   :   60;
  6FF   :   AD;
  700   :   70;
  701   :    7;
  702   :   D0;
  703   :   4A;
  704   :   A9;
  705   :   1E;
  706   :   8D;
  707   :    6;
  708   :   20;
  709   :   A9;
  70A   :   C0;
  70B   :   8D;
  70C   :    6;
  70D   :   20;
  70E   :   A9;
  70F   :    3;
  710   :   85;
  711   :    1;
  712   :   A0;
  713   :    0;
  714   :   84;
  715   :    0;
  716   :   AD;
  717   :    7;
  718   :   20;
  719   :   AD;
  71A   :    7;
  71B   :   20;
  71C   :   91;
  71D   :    0;
  71E   :   C8;
  71F   :   D0;
  720   :    2;
  721   :   E6;
  722   :    1;
  723   :   A5;
  724   :    1;
  725   :   C9;
  726   :    4;
  727   :   D0;
  728   :   F0;
  729   :   C0;
  72A   :   3A;
  72B   :   90;
  72C   :   EC;
  72D   :   A9;
  72E   :    5;
  72F   :   4C;
  730   :   4C;
  731   :   86;
  732   :   AD;
  733   :   70;
  734   :    7;
  735   :   D0;
  736   :   17;
  737   :   A2;
  738   :    0;
  739   :   9D;
  73A   :    0;
  73B   :    3;
  73C   :   9D;
  73D   :    0;
  73E   :    4;
  73F   :   CA;
  740   :   D0;
  741   :   F7;
  742   :   20;
  743   :   25;
  744   :   83;
  745   :   EE;
  746   :   3C;
  747   :    7;
  748   :   60;
  749   :   A9;
  74A   :   FA;
  74B   :   20;
  74C   :   3B;
  74D   :   BC;
  74E   :   EE;
  74F   :   72;
  750   :    7;
  751   :   60;
  752   :   20;
  753   :   43;
  754   :    5;
  755   :   16;
  756   :    A;
  757   :   1B;
  758   :   12;
  759   :   18;
  75A   :   20;
  75B   :   52;
  75C   :    B;
  75D   :   20;
  75E   :   18;
  75F   :   1B;
  760   :   15;
  761   :    D;
  762   :   24;
  763   :   24;
  764   :   1D;
  765   :   12;
  766   :   16;
  767   :    E;
  768   :   20;
  769   :   68;
  76A   :    5;
  76B   :    0;
  76C   :   24;
  76D   :   24;
  76E   :   2E;
  76F   :   29;
  770   :   23;
  771   :   C0;
  772   :   7F;
  773   :   AA;
  774   :   23;
  775   :   C2;
  776   :    1;
  777   :   EA;
  778   :   FF;
  779   :   21;
  77A   :   CD;
  77B   :    7;
  77C   :   24;
  77D   :   24;
  77E   :   29;
  77F   :   24;
  780   :   24;
  781   :   24;
  782   :   24;
  783   :   21;
  784   :   4B;
  785   :    9;
  786   :   20;
  787   :   18;
  788   :   1B;
  789   :   15;
  78A   :    D;
  78B   :   24;
  78C   :   24;
  78D   :   28;
  78E   :   24;
  78F   :   22;
  790   :    C;
  791   :   47;
  792   :   24;
  793   :   23;
  794   :   DC;
  795   :    1;
  796   :   BA;
  797   :   FF;
  798   :   21;
  799   :   CD;
  79A   :    5;
  79B   :   16;
  79C   :    A;
  79D   :   1B;
  79E   :   12;
  79F   :   18;
  7A0   :   22;
  7A1   :    C;
  7A2   :    7;
  7A3   :   1D;
  7A4   :   12;
  7A5   :   16;
  7A6   :    E;
  7A7   :   24;
  7A8   :   1E;
  7A9   :   19;
  7AA   :   FF;
  7AB   :   21;
  7AC   :   CD;
  7AD   :    5;
  7AE   :   16;
  7AF   :    A;
  7B0   :   1B;
  7B1   :   12;
  7B2   :   18;
  7B3   :   22;
  7B4   :    B;
  7B5   :    9;
  7B6   :   10;
  7B7   :    A;
  7B8   :   16;
  7B9   :    E;
  7BA   :   24;
  7BB   :   18;
  7BC   :   1F;
  7BD   :    E;
  7BE   :   1B;
  7BF   :   FF;
  7C0   :   25;
  7C1   :   84;
  7C2   :   15;
  7C3   :   20;
  7C4   :    E;
  7C5   :   15;
  7C6   :    C;
  7C7   :   18;
  7C8   :   16;
  7C9   :    E;
  7CA   :   24;
  7CB   :   1D;
  7CC   :   18;
  7CD   :   24;
  7CE   :   20;
  7CF   :    A;
  7D0   :   1B;
  7D1   :   19;
  7D2   :   24;
  7D3   :   23;
  7D4   :   18;
  7D5   :   17;
  7D6   :    E;
  7D7   :   2B;
  7D8   :   26;
  7D9   :   25;
  7DA   :    1;
  7DB   :   24;
  7DC   :   26;
  7DD   :   2D;
  7DE   :    1;
  7DF   :   24;
  7E0   :   26;
  7E1   :   35;
  7E2   :    1;
  7E3   :   24;
  7E4   :   27;
  7E5   :   D9;
  7E6   :   46;
  7E7   :   AA;
  7E8   :   27;
  7E9   :   E1;
  7EA   :   45;
  7EB   :   AA;
  7EC   :   FF;
  7ED   :   15;
  7EE   :   1E;
  7EF   :   12;
  7F0   :   10;
  7F1   :   12;
  7F2   :    4;
  7F3   :    3;
  7F4   :    2;
  7F5   :    0;
  7F6   :   24;
  7F7   :    5;
  7F8   :   24;
  7F9   :    0;
  7FA   :    8;
  7FB   :    7;
  7FC   :    6;
  7FD   :    0;
  7FE   :    0;
  7FF   :    0;
  800   :   27;
  801   :   27;
  802   :   46;
  803   :   4E;
  804   :   59;
  805   :   61;
  806   :   6E;
  807   :   6E;
  808   :   48;
  809   :    A;
  80A   :   A8;
  80B   :   C0;
  80C   :    4;
  80D   :   90;
  80E   :    C;
  80F   :   C0;
  810   :    8;
  811   :   90;
  812   :    2;
  813   :   A0;
  814   :    8;
  815   :   AD;
  816   :   7A;
  817   :    7;
  818   :   D0;
  819   :    1;
  81A   :   C8;
  81B   :   BE;
  81C   :   FE;
  81D   :   87;
  81E   :   A0;
  81F   :    0;
  820   :   BD;
  821   :   52;
  822   :   87;
  823   :   C9;
  824   :   FF;
  825   :   F0;
  826   :    7;
  827   :   99;
  828   :    1;
  829   :    3;
  82A   :   E8;
  82B   :   C8;
  82C   :   D0;
  82D   :   F2;
  82E   :   A9;
  82F   :    0;
  830   :   99;
  831   :    1;
  832   :    3;
  833   :   68;
  834   :   AA;
  835   :   C9;
  836   :    4;
  837   :   B0;
  838   :   49;
  839   :   CA;
  83A   :   D0;
  83B   :   23;
  83C   :   AD;
  83D   :   5A;
  83E   :    7;
  83F   :   18;
  840   :   69;
  841   :    1;
  842   :   C9;
  843   :    A;
  844   :   90;
  845   :    7;
  846   :   E9;
  847   :    A;
  848   :   A0;
  849   :   9F;
  84A   :   8C;
  84B   :    8;
  84C   :    3;
  84D   :   8D;
  84E   :    9;
  84F   :    3;
  850   :   AC;
  851   :   5F;
  852   :    7;
  853   :   C8;
  854   :   8C;
  855   :   14;
  856   :    3;
  857   :   AC;
  858   :   5C;
  859   :    7;
  85A   :   C8;
  85B   :   8C;
  85C   :   16;
  85D   :    3;
  85E   :   60;
  85F   :   AD;
  860   :   7A;
  861   :    7;
  862   :   F0;
  863   :   1D;
  864   :   AD;
  865   :   53;
  866   :    7;
  867   :   CA;
  868   :   D0;
  869   :    9;
  86A   :   AC;
  86B   :   70;
  86C   :    7;
  86D   :   C0;
  86E   :    3;
  86F   :   F0;
  870   :    2;
  871   :   49;
  872   :    1;
  873   :   4A;
  874   :   90;
  875   :    B;
  876   :   A0;
  877   :    4;
  878   :   B9;
  879   :   ED;
  87A   :   87;
  87B   :   99;
  87C   :    4;
  87D   :    3;
  87E   :   88;
  87F   :   10;
  880   :   F7;
  881   :   60;
  882   :   E9;
  883   :    4;
  884   :    A;
  885   :    A;
  886   :   AA;
  887   :   A0;
  888   :    0;
  889   :   BD;
  88A   :   F2;
  88B   :   87;
  88C   :   99;
  88D   :   1C;
  88E   :    3;
  88F   :   E8;
  890   :   C8;
  891   :   C8;
  892   :   C8;
  893   :   C8;
  894   :   C0;
  895   :    C;
  896   :   90;
  897   :   F1;
  898   :   A9;
  899   :   2C;
  89A   :   4C;
  89B   :   3F;
  89C   :   86;
  89D   :   AD;
  89E   :   A0;
  89F   :    7;
  8A0   :   D0;
  8A1   :    B;
  8A2   :   20;
  8A3   :   20;
  8A4   :   82;
  8A5   :   A9;
  8A6   :    7;
  8A7   :   8D;
  8A8   :   A0;
  8A9   :    7;
  8AA   :   EE;
  8AB   :   3C;
  8AC   :    7;
  8AD   :   60;
  8AE   :   AD;
  8AF   :   26;
  8B0   :    7;
  8B1   :   29;
  8B2   :    1;
  8B3   :   85;
  8B4   :    5;
  8B5   :   AC;
  8B6   :   40;
  8B7   :    3;
  8B8   :   84;
  8B9   :    0;
  8BA   :   AD;
  8BB   :   21;
  8BC   :    7;
  8BD   :   99;
  8BE   :   42;
  8BF   :    3;
  8C0   :   AD;
  8C1   :   20;
  8C2   :    7;
  8C3   :   99;
  8C4   :   41;
  8C5   :    3;
  8C6   :   A9;
  8C7   :   9A;
  8C8   :   99;
  8C9   :   43;
  8CA   :    3;
  8CB   :   A9;
  8CC   :    0;
  8CD   :   85;
  8CE   :    4;
  8CF   :   AA;
  8D0   :   86;
  8D1   :    1;
  8D2   :   BD;
  8D3   :   A1;
  8D4   :    6;
  8D5   :   29;
  8D6   :   C0;
  8D7   :   85;
  8D8   :    3;
  8D9   :    A;
  8DA   :   2A;
  8DB   :   2A;
  8DC   :   A8;
  8DD   :   B9;
  8DE   :    8;
  8DF   :   8B;
  8E0   :   85;
  8E1   :    6;
  8E2   :   B9;
  8E3   :    C;
  8E4   :   8B;
  8E5   :   85;
  8E6   :    7;
  8E7   :   BD;
  8E8   :   A1;
  8E9   :    6;
  8EA   :    A;
  8EB   :    A;
  8EC   :   85;
  8ED   :    2;
  8EE   :   AD;
  8EF   :   1F;
  8F0   :    7;
  8F1   :   29;
  8F2   :    1;
  8F3   :   49;
  8F4   :    1;
  8F5   :    A;
  8F6   :   65;
  8F7   :    2;
  8F8   :   A8;
  8F9   :   A6;
  8FA   :    0;
  8FB   :   B1;
  8FC   :    6;
  8FD   :   9D;
  8FE   :   44;
  8FF   :    3;
  900   :   C8;
  901   :   B1;
  902   :    6;
  903   :   9D;
  904   :   45;
  905   :    3;
  906   :   A4;
  907   :    4;
  908   :   A5;
  909   :    5;
  90A   :   D0;
  90B   :    E;
  90C   :   A5;
  90D   :    1;
  90E   :   4A;
  90F   :   B0;
  910   :   19;
  911   :   26;
  912   :    3;
  913   :   26;
  914   :    3;
  915   :   26;
  916   :    3;
  917   :   4C;
  918   :   30;
  919   :   89;
  91A   :   A5;
  91B   :    1;
  91C   :   4A;
  91D   :   B0;
  91E   :    F;
  91F   :   46;
  920   :    3;
  921   :   46;
  922   :    3;
  923   :   46;
  924   :    3;
  925   :   46;
  926   :    3;
  927   :   4C;
  928   :   30;
  929   :   89;
  92A   :   46;
  92B   :    3;
  92C   :   46;
  92D   :    3;
  92E   :   E6;
  92F   :    4;
  930   :   B9;
  931   :   F9;
  932   :    3;
  933   :    5;
  934   :    3;
  935   :   99;
  936   :   F9;
  937   :    3;
  938   :   E6;
  939   :    0;
  93A   :   E6;
  93B   :    0;
  93C   :   A6;
  93D   :    1;
  93E   :   E8;
  93F   :   E0;
  940   :    D;
  941   :   90;
  942   :   8D;
  943   :   A4;
  944   :    0;
  945   :   C8;
  946   :   C8;
  947   :   C8;
  948   :   A9;
  949   :    0;
  94A   :   99;
  94B   :   41;
  94C   :    3;
  94D   :   8C;
  94E   :   40;
  94F   :    3;
  950   :   EE;
  951   :   21;
  952   :    7;
  953   :   AD;
  954   :   21;
  955   :    7;
  956   :   29;
  957   :   1F;
  958   :   D0;
  959   :    D;
  95A   :   A9;
  95B   :   80;
  95C   :   8D;
  95D   :   21;
  95E   :    7;
  95F   :   AD;
  960   :   20;
  961   :    7;
  962   :   49;
  963   :    4;
  964   :   8D;
  965   :   20;
  966   :    7;
  967   :   4C;
  968   :   BD;
  969   :   89;
  96A   :   AD;
  96B   :   21;
  96C   :    7;
  96D   :   29;
  96E   :   1F;
  96F   :   38;
  970   :   E9;
  971   :    4;
  972   :   29;
  973   :   1F;
  974   :   85;
  975   :    1;
  976   :   AD;
  977   :   20;
  978   :    7;
  979   :   B0;
  97A   :    2;
  97B   :   49;
  97C   :    4;
  97D   :   29;
  97E   :    4;
  97F   :    9;
  980   :   23;
  981   :   85;
  982   :    0;
  983   :   A5;
  984   :    1;
  985   :   4A;
  986   :   4A;
  987   :   69;
  988   :   C0;
  989   :   85;
  98A   :    1;
  98B   :   A2;
  98C   :    0;
  98D   :   AC;
  98E   :   40;
  98F   :    3;
  990   :   A5;
  991   :    0;
  992   :   99;
  993   :   41;
  994   :    3;
  995   :   A5;
  996   :    1;
  997   :   18;
  998   :   69;
  999   :    8;
  99A   :   99;
  99B   :   42;
  99C   :    3;
  99D   :   85;
  99E   :    1;
  99F   :   BD;
  9A0   :   F9;
  9A1   :    3;
  9A2   :   99;
  9A3   :   44;
  9A4   :    3;
  9A5   :   A9;
  9A6   :    1;
  9A7   :   99;
  9A8   :   43;
  9A9   :    3;
  9AA   :   4A;
  9AB   :   9D;
  9AC   :   F9;
  9AD   :    3;
  9AE   :   C8;
  9AF   :   C8;
  9B0   :   C8;
  9B1   :   C8;
  9B2   :   E8;
  9B3   :   E0;
  9B4   :    7;
  9B5   :   90;
  9B6   :   D9;
  9B7   :   99;
  9B8   :   41;
  9B9   :    3;
  9BA   :   8C;
  9BB   :   40;
  9BC   :    3;
  9BD   :   A9;
  9BE   :    6;
  9BF   :   8D;
  9C0   :   73;
  9C1   :    7;
  9C2   :   60;
  9C3   :   27;
  9C4   :   27;
  9C5   :   27;
  9C6   :   17;
  9C7   :    7;
  9C8   :   17;
  9C9   :   3F;
  9CA   :    C;
  9CB   :    4;
  9CC   :   FF;
  9CD   :   FF;
  9CE   :   FF;
  9CF   :   FF;
  9D0   :    0;
  9D1   :    F;
  9D2   :    7;
  9D3   :   12;
  9D4   :    F;
  9D5   :    F;
  9D6   :    7;
  9D7   :   17;
  9D8   :    F;
  9D9   :    F;
  9DA   :    7;
  9DB   :   17;
  9DC   :   1C;
  9DD   :    F;
  9DE   :    7;
  9DF   :   17;
  9E0   :    0;
  9E1   :   A5;
  9E2   :    9;
  9E3   :   29;
  9E4   :    7;
  9E5   :   D0;
  9E6   :   51;
  9E7   :   AE;
  9E8   :    0;
  9E9   :    3;
  9EA   :   E0;
  9EB   :   31;
  9EC   :   B0;
  9ED   :   4A;
  9EE   :   A8;
  9EF   :   B9;
  9F0   :   C9;
  9F1   :   89;
  9F2   :   9D;
  9F3   :    1;
  9F4   :    3;
  9F5   :   E8;
  9F6   :   C8;
  9F7   :   C0;
  9F8   :    8;
  9F9   :   90;
  9FA   :   F4;
  9FB   :   AE;
  9FC   :    0;
  9FD   :    3;
  9FE   :   A9;
  9FF   :    3;
  A00   :   85;
  A01   :    0;
  A02   :   AD;
  A03   :   4E;
  A04   :    7;
  A05   :    A;
  A06   :    A;
  A07   :   A8;
  A08   :   B9;
  A09   :   D1;
  A0A   :   89;
  A0B   :   9D;
  A0C   :    4;
  A0D   :    3;
  A0E   :   C8;
  A0F   :   E8;
  A10   :   C6;
  A11   :    0;
  A12   :   10;
  A13   :   F4;
  A14   :   AE;
  A15   :    0;
  A16   :    3;
  A17   :   AC;
  A18   :   D4;
  A19   :    6;
  A1A   :   B9;
  A1B   :   C3;
  A1C   :   89;
  A1D   :   9D;
  A1E   :    5;
  A1F   :    3;
  A20   :   AD;
  A21   :    0;
  A22   :    3;
  A23   :   18;
  A24   :   69;
  A25   :    7;
  A26   :   8D;
  A27   :    0;
  A28   :    3;
  A29   :   EE;
  A2A   :   D4;
  A2B   :    6;
  A2C   :   AD;
  A2D   :   D4;
  A2E   :    6;
  A2F   :   C9;
  A30   :    6;
  A31   :   90;
  A32   :    5;
  A33   :   A9;
  A34   :    0;
  A35   :   8D;
  A36   :   D4;
  A37   :    6;
  A38   :   60;
  A39   :   45;
  A3A   :   45;
  A3B   :   47;
  A3C   :   47;
  A3D   :   47;
  A3E   :   47;
  A3F   :   47;
  A40   :   47;
  A41   :   57;
  A42   :   58;
  A43   :   59;
  A44   :   5A;
  A45   :   24;
  A46   :   24;
  A47   :   24;
  A48   :   24;
  A49   :   26;
  A4A   :   26;
  A4B   :   26;
  A4C   :   26;
  A4D   :   A0;
  A4E   :   41;
  A4F   :   A9;
  A50   :    3;
  A51   :   AE;
  A52   :   4E;
  A53   :    7;
  A54   :   D0;
  A55   :    2;
  A56   :   A9;
  A57   :    4;
  A58   :   20;
  A59   :   97;
  A5A   :   8A;
  A5B   :   A9;
  A5C   :    6;
  A5D   :   8D;
  A5E   :   73;
  A5F   :    7;
  A60   :   60;
  A61   :   20;
  A62   :   6D;
  A63   :   8A;
  A64   :   EE;
  A65   :   F0;
  A66   :    3;
  A67   :   DE;
  A68   :   EC;
  A69   :    3;
  A6A   :   60;
  A6B   :   A9;
  A6C   :    0;
  A6D   :   A0;
  A6E   :    3;
  A6F   :   C9;
  A70   :    0;
  A71   :   F0;
  A72   :   14;
  A73   :   A0;
  A74   :    0;
  A75   :   C9;
  A76   :   58;
  A77   :   F0;
  A78   :    E;
  A79   :   C9;
  A7A   :   51;
  A7B   :   F0;
  A7C   :    A;
  A7D   :   C8;
  A7E   :   C9;
  A7F   :   5D;
  A80   :   F0;
  A81   :    5;
  A82   :   C9;
  A83   :   52;
  A84   :   F0;
  A85   :    1;
  A86   :   C8;
  A87   :   98;
  A88   :   AC;
  A89   :    0;
  A8A   :    3;
  A8B   :   C8;
  A8C   :   20;
  A8D   :   97;
  A8E   :   8A;
  A8F   :   88;
  A90   :   98;
  A91   :   18;
  A92   :   69;
  A93   :    A;
  A94   :   4C;
  A95   :   3F;
  A96   :   86;
  A97   :   86;
  A98   :    0;
  A99   :   84;
  A9A   :    1;
  A9B   :    A;
  A9C   :    A;
  A9D   :   AA;
  A9E   :   A0;
  A9F   :   20;
  AA0   :   A5;
  AA1   :    6;
  AA2   :   C9;
  AA3   :   D0;
  AA4   :   90;
  AA5   :    2;
  AA6   :   A0;
  AA7   :   24;
  AA8   :   84;
  AA9   :    3;
  AAA   :   29;
  AAB   :    F;
  AAC   :    A;
  AAD   :   85;
  AAE   :    4;
  AAF   :   A9;
  AB0   :    0;
  AB1   :   85;
  AB2   :    5;
  AB3   :   A5;
  AB4   :    2;
  AB5   :   18;
  AB6   :   69;
  AB7   :   20;
  AB8   :    A;
  AB9   :   26;
  ABA   :    5;
  ABB   :    A;
  ABC   :   26;
  ABD   :    5;
  ABE   :   65;
  ABF   :    4;
  AC0   :   85;
  AC1   :    4;
  AC2   :   A5;
  AC3   :    5;
  AC4   :   69;
  AC5   :    0;
  AC6   :   18;
  AC7   :   65;
  AC8   :    3;
  AC9   :   85;
  ACA   :    5;
  ACB   :   A4;
  ACC   :    1;
  ACD   :   BD;
  ACE   :   39;
  ACF   :   8A;
  AD0   :   99;
  AD1   :    3;
  AD2   :    3;
  AD3   :   BD;
  AD4   :   3A;
  AD5   :   8A;
  AD6   :   99;
  AD7   :    4;
  AD8   :    3;
  AD9   :   BD;
  ADA   :   3B;
  ADB   :   8A;
  ADC   :   99;
  ADD   :    8;
  ADE   :    3;
  ADF   :   BD;
  AE0   :   3C;
  AE1   :   8A;
  AE2   :   99;
  AE3   :    9;
  AE4   :    3;
  AE5   :   A5;
  AE6   :    4;
  AE7   :   99;
  AE8   :    1;
  AE9   :    3;
  AEA   :   18;
  AEB   :   69;
  AEC   :   20;
  AED   :   99;
  AEE   :    6;
  AEF   :    3;
  AF0   :   A5;
  AF1   :    5;
  AF2   :   99;
  AF3   :    0;
  AF4   :    3;
  AF5   :   99;
  AF6   :    5;
  AF7   :    3;
  AF8   :   A9;
  AF9   :    2;
  AFA   :   99;
  AFB   :    2;
  AFC   :    3;
  AFD   :   99;
  AFE   :    7;
  AFF   :    3;
  B00   :   A9;
  B01   :    0;
  B02   :   99;
  B03   :    A;
  B04   :    3;
  B05   :   A6;
  B06   :    0;
  B07   :   60;
  B08   :   10;
  B09   :   AC;
  B0A   :   64;
  B0B   :   8C;
  B0C   :   8B;
  B0D   :   8B;
  B0E   :   8C;
  B0F   :   8C;
  B10   :   24;
  B11   :   24;
  B12   :   24;
  B13   :   24;
  B14   :   27;
  B15   :   27;
  B16   :   27;
  B17   :   27;
  B18   :   24;
  B19   :   24;
  B1A   :   24;
  B1B   :   35;
  B1C   :   36;
  B1D   :   25;
  B1E   :   37;
  B1F   :   25;
  B20   :   24;
  B21   :   38;
  B22   :   24;
  B23   :   24;
  B24   :   24;
  B25   :   30;
  B26   :   30;
  B27   :   26;
  B28   :   26;
  B29   :   26;
  B2A   :   34;
  B2B   :   26;
  B2C   :   24;
  B2D   :   31;
  B2E   :   24;
  B2F   :   32;
  B30   :   33;
  B31   :   26;
  B32   :   24;
  B33   :   33;
  B34   :   34;
  B35   :   26;
  B36   :   26;
  B37   :   26;
  B38   :   26;
  B39   :   26;
  B3A   :   26;
  B3B   :   26;
  B3C   :   24;
  B3D   :   C0;
  B3E   :   24;
  B3F   :   C0;
  B40   :   24;
  B41   :   7F;
  B42   :   7F;
  B43   :   24;
  B44   :   B8;
  B45   :   BA;
  B46   :   B9;
  B47   :   BB;
  B48   :   B8;
  B49   :   BC;
  B4A   :   B9;
  B4B   :   BD;
  B4C   :   BA;
  B4D   :   BC;
  B4E   :   BB;
  B4F   :   BD;
  B50   :   60;
  B51   :   64;
  B52   :   61;
  B53   :   65;
  B54   :   62;
  B55   :   66;
  B56   :   63;
  B57   :   67;
  B58   :   60;
  B59   :   64;
  B5A   :   61;
  B5B   :   65;
  B5C   :   62;
  B5D   :   66;
  B5E   :   63;
  B5F   :   67;
  B60   :   68;
  B61   :   68;
  B62   :   69;
  B63   :   69;
  B64   :   26;
  B65   :   26;
  B66   :   6A;
  B67   :   6A;
  B68   :   4B;
  B69   :   4C;
  B6A   :   4D;
  B6B   :   4E;
  B6C   :   4D;
  B6D   :   4F;
  B6E   :   4D;
  B6F   :   4F;
  B70   :   4D;
  B71   :   4E;
  B72   :   50;
  B73   :   51;
  B74   :   6B;
  B75   :   70;
  B76   :   2C;
  B77   :   2D;
  B78   :   6C;
  B79   :   71;
  B7A   :   6D;
  B7B   :   72;
  B7C   :   6E;
  B7D   :   73;
  B7E   :   6F;
  B7F   :   74;
  B80   :   86;
  B81   :   8A;
  B82   :   87;
  B83   :   8B;
  B84   :   88;
  B85   :   8C;
  B86   :   88;
  B87   :   8C;
  B88   :   89;
  B89   :   8D;
  B8A   :   69;
  B8B   :   69;
  B8C   :   8E;
  B8D   :   91;
  B8E   :   8F;
  B8F   :   92;
  B90   :   26;
  B91   :   93;
  B92   :   26;
  B93   :   93;
  B94   :   90;
  B95   :   94;
  B96   :   69;
  B97   :   69;
  B98   :   A4;
  B99   :   E9;
  B9A   :   EA;
  B9B   :   EB;
  B9C   :   24;
  B9D   :   24;
  B9E   :   24;
  B9F   :   24;
  BA0   :   24;
  BA1   :   2F;
  BA2   :   24;
  BA3   :   3D;
  BA4   :   A2;
  BA5   :   A2;
  BA6   :   A3;
  BA7   :   A3;
  BA8   :   24;
  BA9   :   24;
  BAA   :   24;
  BAB   :   24;
  BAC   :   A2;
  BAD   :   A2;
  BAE   :   A3;
  BAF   :   A3;
  BB0   :   99;
  BB1   :   24;
  BB2   :   99;
  BB3   :   24;
  BB4   :   24;
  BB5   :   A2;
  BB6   :   3E;
  BB7   :   3F;
  BB8   :   5B;
  BB9   :   5C;
  BBA   :   24;
  BBB   :   A3;
  BBC   :   24;
  BBD   :   24;
  BBE   :   24;
  BBF   :   24;
  BC0   :   9D;
  BC1   :   47;
  BC2   :   9E;
  BC3   :   47;
  BC4   :   47;
  BC5   :   47;
  BC6   :   27;
  BC7   :   27;
  BC8   :   47;
  BC9   :   47;
  BCA   :   47;
  BCB   :   47;
  BCC   :   27;
  BCD   :   27;
  BCE   :   47;
  BCF   :   47;
  BD0   :   A9;
  BD1   :   47;
  BD2   :   AA;
  BD3   :   47;
  BD4   :   9B;
  BD5   :   27;
  BD6   :   9C;
  BD7   :   27;
  BD8   :   27;
  BD9   :   27;
  BDA   :   27;
  BDB   :   27;
  BDC   :   52;
  BDD   :   52;
  BDE   :   52;
  BDF   :   52;
  BE0   :   80;
  BE1   :   A0;
  BE2   :   81;
  BE3   :   A1;
  BE4   :   BE;
  BE5   :   BE;
  BE6   :   BF;
  BE7   :   BF;
  BE8   :   75;
  BE9   :   BA;
  BEA   :   76;
  BEB   :   BB;
  BEC   :   BA;
  BED   :   BA;
  BEE   :   BB;
  BEF   :   BB;
  BF0   :   45;
  BF1   :   47;
  BF2   :   45;
  BF3   :   47;
  BF4   :   47;
  BF5   :   47;
  BF6   :   47;
  BF7   :   47;
  BF8   :   45;
  BF9   :   47;
  BFA   :   45;
  BFB   :   47;
  BFC   :   B4;
  BFD   :   B6;
  BFE   :   B5;
  BFF   :   B7;
  C00   :   45;
  C01   :   47;
  C02   :   45;
  C03   :   47;
  C04   :   45;
  C05   :   47;
  C06   :   45;
  C07   :   47;
  C08   :   45;
  C09   :   47;
  C0A   :   45;
  C0B   :   47;
  C0C   :   45;
  C0D   :   47;
  C0E   :   45;
  C0F   :   47;
  C10   :   45;
  C11   :   47;
  C12   :   45;
  C13   :   47;
  C14   :   47;
  C15   :   47;
  C16   :   47;
  C17   :   47;
  C18   :   47;
  C19   :   47;
  C1A   :   47;
  C1B   :   47;
  C1C   :   47;
  C1D   :   47;
  C1E   :   47;
  C1F   :   47;
  C20   :   47;
  C21   :   47;
  C22   :   47;
  C23   :   47;
  C24   :   47;
  C25   :   47;
  C26   :   47;
  C27   :   47;
  C28   :   24;
  C29   :   24;
  C2A   :   24;
  C2B   :   24;
  C2C   :   24;
  C2D   :   24;
  C2E   :   24;
  C2F   :   24;
  C30   :   AB;
  C31   :   AC;
  C32   :   AD;
  C33   :   AE;
  C34   :   5D;
  C35   :   5E;
  C36   :   5D;
  C37   :   5E;
  C38   :   C1;
  C39   :   24;
  C3A   :   C1;
  C3B   :   24;
  C3C   :   C6;
  C3D   :   C8;
  C3E   :   C7;
  C3F   :   C9;
  C40   :   CA;
  C41   :   CC;
  C42   :   CB;
  C43   :   CD;
  C44   :   2A;
  C45   :   2A;
  C46   :   40;
  C47   :   40;
  C48   :   24;
  C49   :   24;
  C4A   :   24;
  C4B   :   24;
  C4C   :   24;
  C4D   :   47;
  C4E   :   24;
  C4F   :   47;
  C50   :   82;
  C51   :   83;
  C52   :   84;
  C53   :   85;
  C54   :   24;
  C55   :   47;
  C56   :   24;
  C57   :   47;
  C58   :   86;
  C59   :   8A;
  C5A   :   87;
  C5B   :   8B;
  C5C   :   8E;
  C5D   :   91;
  C5E   :   8F;
  C5F   :   92;
  C60   :   24;
  C61   :   2F;
  C62   :   24;
  C63   :   3D;
  C64   :   24;
  C65   :   24;
  C66   :   24;
  C67   :   35;
  C68   :   36;
  C69   :   25;
  C6A   :   37;
  C6B   :   25;
  C6C   :   24;
  C6D   :   38;
  C6E   :   24;
  C6F   :   24;
  C70   :   24;
  C71   :   24;
  C72   :   39;
  C73   :   24;
  C74   :   3A;
  C75   :   24;
  C76   :   3B;
  C77   :   24;
  C78   :   3C;
  C79   :   24;
  C7A   :   24;
  C7B   :   24;
  C7C   :   41;
  C7D   :   26;
  C7E   :   41;
  C7F   :   26;
  C80   :   26;
  C81   :   26;
  C82   :   26;
  C83   :   26;
  C84   :   B0;
  C85   :   B1;
  C86   :   B2;
  C87   :   B3;
  C88   :   77;
  C89   :   79;
  C8A   :   77;
  C8B   :   79;
  C8C   :   53;
  C8D   :   55;
  C8E   :   54;
  C8F   :   56;
  C90   :   53;
  C91   :   55;
  C92   :   54;
  C93   :   56;
  C94   :   A5;
  C95   :   A7;
  C96   :   A6;
  C97   :   A8;
  C98   :   C2;
  C99   :   C4;
  C9A   :   C3;
  C9B   :   C5;
  C9C   :   57;
  C9D   :   59;
  C9E   :   58;
  C9F   :   5A;
  CA0   :   7B;
  CA1   :   7D;
  CA2   :   7C;
  CA3   :   7E;
  CA4   :   3F;
  CA5   :    0;
  CA6   :   20;
  CA7   :    F;
  CA8   :   15;
  CA9   :   12;
  CAA   :   25;
  CAB   :    F;
  CAC   :   3A;
  CAD   :   1A;
  CAE   :    F;
  CAF   :    F;
  CB0   :   30;
  CB1   :   12;
  CB2   :    F;
  CB3   :    F;
  CB4   :   27;
  CB5   :   12;
  CB6   :    F;
  CB7   :   22;
  CB8   :   16;
  CB9   :   27;
  CBA   :   18;
  CBB   :    F;
  CBC   :   10;
  CBD   :   30;
  CBE   :   27;
  CBF   :    F;
  CC0   :   16;
  CC1   :   30;
  CC2   :   27;
  CC3   :    F;
  CC4   :    F;
  CC5   :   30;
  CC6   :   10;
  CC7   :    0;
  CC8   :   3F;
  CC9   :    0;
  CCA   :   20;
  CCB   :    F;
  CCC   :   29;
  CCD   :   1A;
  CCE   :    F;
  CCF   :    F;
  CD0   :   36;
  CD1   :   17;
  CD2   :    F;
  CD3   :    F;
  CD4   :   30;
  CD5   :   21;
  CD6   :    F;
  CD7   :    F;
  CD8   :   27;
  CD9   :   17;
  CDA   :    F;
  CDB   :    F;
  CDC   :   16;
  CDD   :   27;
  CDE   :   18;
  CDF   :    F;
  CE0   :   1A;
  CE1   :   30;
  CE2   :   27;
  CE3   :    F;
  CE4   :   16;
  CE5   :   30;
  CE6   :   27;
  CE7   :    F;
  CE8   :    F;
  CE9   :   36;
  CEA   :   17;
  CEB   :    0;
  CEC   :   3F;
  CED   :    0;
  CEE   :   20;
  CEF   :    F;
  CF0   :   29;
  CF1   :   1A;
  CF2   :    9;
  CF3   :    F;
  CF4   :   3C;
  CF5   :   1C;
  CF6   :    F;
  CF7   :    F;
  CF8   :   30;
  CF9   :   21;
  CFA   :   1C;
  CFB   :    F;
  CFC   :   27;
  CFD   :   17;
  CFE   :   1C;
  CFF   :    F;
  D00   :   16;
  D01   :   27;
  D02   :   18;
  D03   :    F;
  D04   :   1C;
  D05   :   36;
  D06   :   17;
  D07   :    F;
  D08   :   16;
  D09   :   30;
  D0A   :   27;
  D0B   :    F;
  D0C   :    C;
  D0D   :   3C;
  D0E   :   1C;
  D0F   :    0;
  D10   :   3F;
  D11   :    0;
  D12   :   20;
  D13   :    F;
  D14   :   30;
  D15   :   10;
  D16   :    0;
  D17   :    F;
  D18   :   30;
  D19   :   10;
  D1A   :    0;
  D1B   :    F;
  D1C   :   30;
  D1D   :   16;
  D1E   :    0;
  D1F   :    F;
  D20   :   27;
  D21   :   17;
  D22   :    0;
  D23   :    F;
  D24   :   16;
  D25   :   27;
  D26   :   18;
  D27   :    F;
  D28   :   1C;
  D29   :   36;
  D2A   :   17;
  D2B   :    F;
  D2C   :   16;
  D2D   :   30;
  D2E   :   27;
  D2F   :    F;
  D30   :    0;
  D31   :   30;
  D32   :   10;
  D33   :    0;
  D34   :   3F;
  D35   :    0;
  D36   :    4;
  D37   :   22;
  D38   :   30;
  D39   :    0;
  D3A   :   10;
  D3B   :    0;
  D3C   :   3F;
  D3D   :    0;
  D3E   :    4;
  D3F   :    F;
  D40   :   30;
  D41   :    0;
  D42   :   10;
  D43   :    0;
  D44   :   3F;
  D45   :    0;
  D46   :    4;
  D47   :   22;
  D48   :   27;
  D49   :   16;
  D4A   :    F;
  D4B   :    0;
  D4C   :   3F;
  D4D   :   14;
  D4E   :    4;
  D4F   :    F;
  D50   :   1A;
  D51   :   30;
  D52   :   27;
  D53   :    0;
  D54   :   25;
  D55   :   48;
  D56   :   10;
  D57   :   1D;
  D58   :   11;
  D59   :    A;
  D5A   :   17;
  D5B   :   14;
  D5C   :   24;
  D5D   :   22;
  D5E   :   18;
  D5F   :   1E;
  D60   :   24;
  D61   :   16;
  D62   :    A;
  D63   :   1B;
  D64   :   12;
  D65   :   18;
  D66   :   2B;
  D67   :    0;
  D68   :   25;
  D69   :   48;
  D6A   :   10;
  D6B   :   1D;
  D6C   :   11;
  D6D   :    A;
  D6E   :   17;
  D6F   :   14;
  D70   :   24;
  D71   :   22;
  D72   :   18;
  D73   :   1E;
  D74   :   24;
  D75   :   15;
  D76   :   1E;
  D77   :   12;
  D78   :   10;
  D79   :   12;
  D7A   :   2B;
  D7B   :    0;
  D7C   :   25;
  D7D   :   C5;
  D7E   :   16;
  D7F   :    B;
  D80   :   1E;
  D81   :   1D;
  D82   :   24;
  D83   :   18;
  D84   :   1E;
  D85   :   1B;
  D86   :   24;
  D87   :   19;
  D88   :   1B;
  D89   :   12;
  D8A   :   17;
  D8B   :    C;
  D8C   :    E;
  D8D   :   1C;
  D8E   :   1C;
  D8F   :   24;
  D90   :   12;
  D91   :   1C;
  D92   :   24;
  D93   :   12;
  D94   :   17;
  D95   :   26;
  D96   :    5;
  D97   :    F;
  D98   :    A;
  D99   :   17;
  D9A   :   18;
  D9B   :   1D;
  D9C   :   11;
  D9D   :    E;
  D9E   :   1B;
  D9F   :   24;
  DA0   :    C;
  DA1   :    A;
  DA2   :   1C;
  DA3   :   1D;
  DA4   :   15;
  DA5   :    E;
  DA6   :   2B;
  DA7   :    0;
  DA8   :   25;
  DA9   :   A7;
  DAA   :   13;
  DAB   :   22;
  DAC   :   18;
  DAD   :   1E;
  DAE   :   1B;
  DAF   :   24;
  DB0   :   1A;
  DB1   :   1E;
  DB2   :    E;
  DB3   :   1C;
  DB4   :   1D;
  DB5   :   24;
  DB6   :   12;
  DB7   :   1C;
  DB8   :   24;
  DB9   :   18;
  DBA   :   1F;
  DBB   :    E;
  DBC   :   1B;
  DBD   :   AF;
  DBE   :    0;
  DBF   :   25;
  DC0   :   E3;
  DC1   :   1B;
  DC2   :   20;
  DC3   :    E;
  DC4   :   24;
  DC5   :   19;
  DC6   :   1B;
  DC7   :    E;
  DC8   :   1C;
  DC9   :    E;
  DCA   :   17;
  DCB   :   1D;
  DCC   :   24;
  DCD   :   22;
  DCE   :   18;
  DCF   :   1E;
  DD0   :   24;
  DD1   :    A;
  DD2   :   24;
  DD3   :   17;
  DD4   :    E;
  DD5   :   20;
  DD6   :   24;
  DD7   :   1A;
  DD8   :   1E;
  DD9   :    E;
  DDA   :   1C;
  DDB   :   1D;
  DDC   :   AF;
  DDD   :    0;
  DDE   :   26;
  DDF   :   4A;
  DE0   :    D;
  DE1   :   19;
  DE2   :   1E;
  DE3   :   1C;
  DE4   :   11;
  DE5   :   24;
  DE6   :    B;
  DE7   :   1E;
  DE8   :   1D;
  DE9   :   1D;
  DEA   :   18;
  DEB   :   17;
  DEC   :   24;
  DED   :    B;
  DEE   :    0;
  DEF   :   26;
  DF0   :   88;
  DF1   :   11;
  DF2   :   1D;
  DF3   :   18;
  DF4   :   24;
  DF5   :   1C;
  DF6   :    E;
  DF7   :   15;
  DF8   :    E;
  DF9   :    C;
  DFA   :   1D;
  DFB   :   24;
  DFC   :    A;
  DFD   :   24;
  DFE   :   20;
  DFF   :   18;
  E00   :   1B;
  E01   :   15;
  E02   :    D;
  E03   :    0;
  E04   :    A;
  E05   :   A8;
  E06   :   68;
  E07   :   85;
  E08   :    4;
  E09   :   68;
  E0A   :   85;
  E0B   :    5;
  E0C   :   C8;
  E0D   :   B1;
  E0E   :    4;
  E0F   :   85;
  E10   :    6;
  E11   :   C8;
  E12   :   B1;
  E13   :    4;
  E14   :   85;
  E15   :    7;
  E16   :   6C;
  E17   :    6;
  E18   :    0;
  E19   :   AD;
  E1A   :    2;
  E1B   :   20;
  E1C   :   AD;
  E1D   :   78;
  E1E   :    7;
  E1F   :    9;
  E20   :   10;
  E21   :   29;
  E22   :   F0;
  E23   :   20;
  E24   :   ED;
  E25   :   8E;
  E26   :   A9;
  E27   :   24;
  E28   :   20;
  E29   :   2D;
  E2A   :   8E;
  E2B   :   A9;
  E2C   :   20;
  E2D   :   8D;
  E2E   :    6;
  E2F   :   20;
  E30   :   A9;
  E31   :    0;
  E32   :   8D;
  E33   :    6;
  E34   :   20;
  E35   :   A2;
  E36   :    4;
  E37   :   A0;
  E38   :   C0;
  E39   :   A9;
  E3A   :   24;
  E3B   :   8D;
  E3C   :    7;
  E3D   :   20;
  E3E   :   88;
  E3F   :   D0;
  E40   :   FA;
  E41   :   CA;
  E42   :   D0;
  E43   :   F7;
  E44   :   A0;
  E45   :   40;
  E46   :   8A;
  E47   :   8D;
  E48   :    0;
  E49   :    3;
  E4A   :   8D;
  E4B   :    1;
  E4C   :    3;
  E4D   :   8D;
  E4E   :    7;
  E4F   :   20;
  E50   :   88;
  E51   :   D0;
  E52   :   FA;
  E53   :   8D;
  E54   :   3F;
  E55   :    7;
  E56   :   8D;
  E57   :   40;
  E58   :    7;
  E59   :   4C;
  E5A   :   E6;
  E5B   :   8E;
  E5C   :   A9;
  E5D   :    1;
  E5E   :   8D;
  E5F   :   16;
  E60   :   40;
  E61   :   4A;
  E62   :   AA;
  E63   :   8D;
  E64   :   16;
  E65   :   40;
  E66   :   20;
  E67   :   6A;
  E68   :   8E;
  E69   :   E8;
  E6A   :   A0;
  E6B   :    8;
  E6C   :   48;
  E6D   :   BD;
  E6E   :   16;
  E6F   :   40;
  E70   :   85;
  E71   :    0;
  E72   :   4A;
  E73   :    5;
  E74   :    0;
  E75   :   4A;
  E76   :   68;
  E77   :   2A;
  E78   :   88;
  E79   :   D0;
  E7A   :   F1;
  E7B   :   9D;
  E7C   :   FC;
  E7D   :    6;
  E7E   :   48;
  E7F   :   29;
  E80   :   30;
  E81   :   3D;
  E82   :   4A;
  E83   :    7;
  E84   :   F0;
  E85   :    7;
  E86   :   68;
  E87   :   29;
  E88   :   CF;
  E89   :   9D;
  E8A   :   FC;
  E8B   :    6;
  E8C   :   60;
  E8D   :   68;
  E8E   :   9D;
  E8F   :   4A;
  E90   :    7;
  E91   :   60;
  E92   :   8D;
  E93   :    6;
  E94   :   20;
  E95   :   C8;
  E96   :   B1;
  E97   :    0;
  E98   :   8D;
  E99   :    6;
  E9A   :   20;
  E9B   :   C8;
  E9C   :   B1;
  E9D   :    0;
  E9E   :    A;
  E9F   :   48;
  EA0   :   AD;
  EA1   :   78;
  EA2   :    7;
  EA3   :    9;
  EA4   :    4;
  EA5   :   B0;
  EA6   :    2;
  EA7   :   29;
  EA8   :   FB;
  EA9   :   20;
  EAA   :   ED;
  EAB   :   8E;
  EAC   :   68;
  EAD   :    A;
  EAE   :   90;
  EAF   :    3;
  EB0   :    9;
  EB1   :    2;
  EB2   :   C8;
  EB3   :   4A;
  EB4   :   4A;
  EB5   :   AA;
  EB6   :   B0;
  EB7   :    1;
  EB8   :   C8;
  EB9   :   B1;
  EBA   :    0;
  EBB   :   8D;
  EBC   :    7;
  EBD   :   20;
  EBE   :   CA;
  EBF   :   D0;
  EC0   :   F5;
  EC1   :   38;
  EC2   :   98;
  EC3   :   65;
  EC4   :    0;
  EC5   :   85;
  EC6   :    0;
  EC7   :   A9;
  EC8   :    0;
  EC9   :   65;
  ECA   :    1;
  ECB   :   85;
  ECC   :    1;
  ECD   :   A9;
  ECE   :   3F;
  ECF   :   8D;
  ED0   :    6;
  ED1   :   20;
  ED2   :   A9;
  ED3   :    0;
  ED4   :   8D;
  ED5   :    6;
  ED6   :   20;
  ED7   :   8D;
  ED8   :    6;
  ED9   :   20;
  EDA   :   8D;
  EDB   :    6;
  EDC   :   20;
  EDD   :   AE;
  EDE   :    2;
  EDF   :   20;
  EE0   :   A0;
  EE1   :    0;
  EE2   :   B1;
  EE3   :    0;
  EE4   :   D0;
  EE5   :   AC;
  EE6   :   8D;
  EE7   :    5;
  EE8   :   20;
  EE9   :   8D;
  EEA   :    5;
  EEB   :   20;
  EEC   :   60;
  EED   :   8D;
  EEE   :    0;
  EEF   :   20;
  EF0   :   8D;
  EF1   :   78;
  EF2   :    7;
  EF3   :   60;
  EF4   :   F0;
  EF5   :    6;
  EF6   :   62;
  EF7   :    6;
  EF8   :   62;
  EF9   :    6;
  EFA   :   6D;
  EFB   :    2;
  EFC   :   6D;
  EFD   :    2;
  EFE   :   7A;
  EFF   :    3;
  F00   :    6;
  F01   :    C;
  F02   :   12;
  F03   :   18;
  F04   :   1E;
  F05   :   24;
  F06   :   85;
  F07   :    0;
  F08   :   20;
  F09   :   11;
  F0A   :   8F;
  F0B   :   A5;
  F0C   :    0;
  F0D   :   4A;
  F0E   :   4A;
  F0F   :   4A;
  F10   :   4A;
  F11   :   18;
  F12   :   69;
  F13   :    1;
  F14   :   29;
  F15   :    F;
  F16   :   C9;
  F17   :    6;
  F18   :   B0;
  F19   :   44;
  F1A   :   48;
  F1B   :    A;
  F1C   :   A8;
  F1D   :   AE;
  F1E   :    0;
  F1F   :    3;
  F20   :   A9;
  F21   :   20;
  F22   :   C0;
  F23   :    0;
  F24   :   D0;
  F25   :    2;
  F26   :   A9;
  F27   :   22;
  F28   :   9D;
  F29   :    1;
  F2A   :    3;
  F2B   :   B9;
  F2C   :   F4;
  F2D   :   8E;
  F2E   :   9D;
  F2F   :    2;
  F30   :    3;
  F31   :   B9;
  F32   :   F5;
  F33   :   8E;
  F34   :   9D;
  F35   :    3;
  F36   :    3;
  F37   :   85;
  F38   :    3;
  F39   :   86;
  F3A   :    2;
  F3B   :   68;
  F3C   :   AA;
  F3D   :   BD;
  F3E   :    0;
  F3F   :   8F;
  F40   :   38;
  F41   :   F9;
  F42   :   F5;
  F43   :   8E;
  F44   :   A8;
  F45   :   A6;
  F46   :    2;
  F47   :   B9;
  F48   :   D7;
  F49   :    7;
  F4A   :   9D;
  F4B   :    4;
  F4C   :    3;
  F4D   :   E8;
  F4E   :   C8;
  F4F   :   C6;
  F50   :    3;
  F51   :   D0;
  F52   :   F4;
  F53   :   A9;
  F54   :    0;
  F55   :   9D;
  F56   :    4;
  F57   :    3;
  F58   :   E8;
  F59   :   E8;
  F5A   :   E8;
  F5B   :   8E;
  F5C   :    0;
  F5D   :    3;
  F5E   :   60;
  F5F   :   AD;
  F60   :   70;
  F61   :    7;
  F62   :   C9;
  F63   :    0;
  F64   :   F0;
  F65   :   16;
  F66   :   A2;
  F67   :    5;
  F68   :   BD;
  F69   :   34;
  F6A   :    1;
  F6B   :   18;
  F6C   :   79;
  F6D   :   D7;
  F6E   :    7;
  F6F   :   30;
  F70   :   16;
  F71   :   C9;
  F72   :    A;
  F73   :   B0;
  F74   :   19;
  F75   :   99;
  F76   :   D7;
  F77   :    7;
  F78   :   88;
  F79   :   CA;
  F7A   :   10;
  F7B   :   EC;
  F7C   :   A9;
  F7D   :    0;
  F7E   :   A2;
  F7F   :    6;
  F80   :   9D;
  F81   :   33;
  F82   :    1;
  F83   :   CA;
  F84   :   10;
  F85   :   FA;
  F86   :   60;
  F87   :   DE;
  F88   :   33;
  F89   :    1;
  F8A   :   A9;
  F8B   :    9;
  F8C   :   D0;
  F8D   :   E7;
  F8E   :   38;
  F8F   :   E9;
  F90   :    A;
  F91   :   FE;
  F92   :   33;
  F93   :    1;
  F94   :   4C;
  F95   :   75;
  F96   :   8F;
  F97   :   A2;
  F98   :    5;
  F99   :   20;
  F9A   :   9E;
  F9B   :   8F;
  F9C   :   A2;
  F9D   :    B;
  F9E   :   A0;
  F9F   :    5;
  FA0   :   38;
  FA1   :   BD;
  FA2   :   DD;
  FA3   :    7;
  FA4   :   F9;
  FA5   :   D7;
  FA6   :    7;
  FA7   :   CA;
  FA8   :   88;
  FA9   :   10;
  FAA   :   F6;
  FAB   :   90;
  FAC   :    E;
  FAD   :   E8;
  FAE   :   C8;
  FAF   :   BD;
  FB0   :   DD;
  FB1   :    7;
  FB2   :   99;
  FB3   :   D7;
  FB4   :    7;
  FB5   :   E8;
  FB6   :   C8;
  FB7   :   C0;
  FB8   :    6;
  FB9   :   90;
  FBA   :   F4;
  FBB   :   60;
  FBC   :    4;
  FBD   :   30;
  FBE   :   48;
  FBF   :   60;
  FC0   :   78;
  FC1   :   90;
  FC2   :   A8;
  FC3   :   C0;
  FC4   :   D8;
  FC5   :   E8;
  FC6   :   24;
  FC7   :   F8;
  FC8   :   FC;
  FC9   :   28;
  FCA   :   2C;
  FCB   :   18;
  FCC   :   FF;
  FCD   :   23;
  FCE   :   58;
  FCF   :   A0;
  FD0   :   6F;
  FD1   :   20;
  FD2   :   CC;
  FD3   :   90;
  FD4   :   A0;
  FD5   :   1F;
  FD6   :   99;
  FD7   :   B0;
  FD8   :    7;
  FD9   :   88;
  FDA   :   10;
  FDB   :   FA;
  FDC   :   A9;
  FDD   :   18;
  FDE   :   8D;
  FDF   :   A2;
  FE0   :    7;
  FE1   :   20;
  FE2   :    3;
  FE3   :   9C;
  FE4   :   A0;
  FE5   :   4B;
  FE6   :   20;
  FE7   :   CC;
  FE8   :   90;
  FE9   :   A2;
  FEA   :   21;
  FEB   :   A9;
  FEC   :    0;
  FED   :   9D;
  FEE   :   80;
  FEF   :    7;
  FF0   :   CA;
  FF1   :   10;
  FF2   :   FA;
  FF3   :   AD;
  FF4   :   5B;
  FF5   :    7;
  FF6   :   AC;
  FF7   :   52;
  FF8   :    7;
  FF9   :   F0;
  FFA   :    3;
  FFB   :   AD;
  FFC   :   51;
  FFD   :    7;
  FFE   :   8D;
  FFF   :   1A;
 1000   :    7;
 1001   :   8D;
 1002   :   25;
 1003   :    7;
 1004   :   8D;
 1005   :   28;
 1006   :    7;
 1007   :   20;
 1008   :   38;
 1009   :   B0;
 100A   :   A0;
 100B   :   20;
 100C   :   29;
 100D   :    1;
 100E   :   F0;
 100F   :    2;
 1010   :   A0;
 1011   :   24;
 1012   :   8C;
 1013   :   20;
 1014   :    7;
 1015   :   A0;
 1016   :   80;
 1017   :   8C;
 1018   :   21;
 1019   :    7;
 101A   :    A;
 101B   :    A;
 101C   :    A;
 101D   :    A;
 101E   :   8D;
 101F   :   A0;
 1020   :    6;
 1021   :   CE;
 1022   :   30;
 1023   :    7;
 1024   :   CE;
 1025   :   31;
 1026   :    7;
 1027   :   CE;
 1028   :   32;
 1029   :    7;
 102A   :   A9;
 102B   :    B;
 102C   :   8D;
 102D   :   1E;
 102E   :    7;
 102F   :   20;
 1030   :   22;
 1031   :   9C;
 1032   :   AD;
 1033   :   6A;
 1034   :    7;
 1035   :   D0;
 1036   :   10;
 1037   :   AD;
 1038   :   5F;
 1039   :    7;
 103A   :   C9;
 103B   :    4;
 103C   :   90;
 103D   :    C;
 103E   :   D0;
 103F   :    7;
 1040   :   AD;
 1041   :   5C;
 1042   :    7;
 1043   :   C9;
 1044   :    2;
 1045   :   90;
 1046   :    3;
 1047   :   EE;
 1048   :   CC;
 1049   :    6;
 104A   :   AD;
 104B   :   5B;
 104C   :    7;
 104D   :   F0;
 104E   :    5;
 104F   :   A9;
 1050   :    2;
 1051   :   8D;
 1052   :   10;
 1053   :    7;
 1054   :   A9;
 1055   :   80;
 1056   :   85;
 1057   :   FB;
 1058   :   A9;
 1059   :    1;
 105A   :   8D;
 105B   :   74;
 105C   :    7;
 105D   :   EE;
 105E   :   72;
 105F   :    7;
 1060   :   60;
 1061   :   A9;
 1062   :    1;
 1063   :   8D;
 1064   :   57;
 1065   :    7;
 1066   :   8D;
 1067   :   54;
 1068   :    7;
 1069   :   A9;
 106A   :    2;
 106B   :   8D;
 106C   :   5A;
 106D   :    7;
 106E   :   8D;
 106F   :   61;
 1070   :    7;
 1071   :   A9;
 1072   :    0;
 1073   :   8D;
 1074   :   74;
 1075   :    7;
 1076   :   A8;
 1077   :   99;
 1078   :    0;
 1079   :    3;
 107A   :   C8;
 107B   :   D0;
 107C   :   FA;
 107D   :   8D;
 107E   :   59;
 107F   :    7;
 1080   :   8D;
 1081   :   69;
 1082   :    7;
 1083   :   8D;
 1084   :   28;
 1085   :    7;
 1086   :   A9;
 1087   :   FF;
 1088   :   8D;
 1089   :   A0;
 108A   :    3;
 108B   :   AD;
 108C   :   1A;
 108D   :    7;
 108E   :   4E;
 108F   :   78;
 1090   :    7;
 1091   :   29;
 1092   :    1;
 1093   :   6A;
 1094   :   2E;
 1095   :   78;
 1096   :    7;
 1097   :   20;
 1098   :   ED;
 1099   :   90;
 109A   :   A9;
 109B   :   38;
 109C   :   8D;
 109D   :   E3;
 109E   :    6;
 109F   :   A9;
 10A0   :   48;
 10A1   :   8D;
 10A2   :   E2;
 10A3   :    6;
 10A4   :   A9;
 10A5   :   58;
 10A6   :   8D;
 10A7   :   E1;
 10A8   :    6;
 10A9   :   A2;
 10AA   :    E;
 10AB   :   BD;
 10AC   :   BC;
 10AD   :   8F;
 10AE   :   9D;
 10AF   :   E4;
 10B0   :    6;
 10B1   :   CA;
 10B2   :   10;
 10B3   :   F7;
 10B4   :   A0;
 10B5   :    3;
 10B6   :   B9;
 10B7   :   CB;
 10B8   :   8F;
 10B9   :   99;
 10BA   :    0;
 10BB   :    2;
 10BC   :   88;
 10BD   :   10;
 10BE   :   F7;
 10BF   :   20;
 10C0   :   AF;
 10C1   :   92;
 10C2   :   20;
 10C3   :   AA;
 10C4   :   92;
 10C5   :   EE;
 10C6   :   22;
 10C7   :    7;
 10C8   :   EE;
 10C9   :   72;
 10CA   :    7;
 10CB   :   60;
 10CC   :   A2;
 10CD   :    7;
 10CE   :   A9;
 10CF   :    0;
 10D0   :   85;
 10D1   :    6;
 10D2   :   86;
 10D3   :    7;
 10D4   :   E0;
 10D5   :    1;
 10D6   :   D0;
 10D7   :    4;
 10D8   :   C0;
 10D9   :   60;
 10DA   :   B0;
 10DB   :    2;
 10DC   :   91;
 10DD   :    6;
 10DE   :   88;
 10DF   :   C0;
 10E0   :   FF;
 10E1   :   D0;
 10E2   :   F1;
 10E3   :   CA;
 10E4   :   10;
 10E5   :   EC;
 10E6   :   60;
 10E7   :    2;
 10E8   :    1;
 10E9   :    4;
 10EA   :    8;
 10EB   :   10;
 10EC   :   20;
 10ED   :   AD;
 10EE   :   70;
 10EF   :    7;
 10F0   :   F0;
 10F1   :   23;
 10F2   :   AD;
 10F3   :   52;
 10F4   :    7;
 10F5   :   C9;
 10F6   :    2;
 10F7   :   F0;
 10F8   :    D;
 10F9   :   A0;
 10FA   :    5;
 10FB   :   AD;
 10FC   :   10;
 10FD   :    7;
 10FE   :   C9;
 10FF   :    6;
 1100   :   F0;
 1101   :    E;
 1102   :   C9;
 1103   :    7;
 1104   :   F0;
 1105   :    A;
 1106   :   AC;
 1107   :   4E;
 1108   :    7;
 1109   :   AD;
 110A   :   43;
 110B   :    7;
 110C   :   F0;
 110D   :    2;
 110E   :   A0;
 110F   :    4;
 1110   :   B9;
 1111   :   E7;
 1112   :   90;
 1113   :   85;
 1114   :   FB;
 1115   :   60;
 1116   :   28;
 1117   :   18;
 1118   :   38;
 1119   :   28;
 111A   :    8;
 111B   :    0;
 111C   :    0;
 111D   :   20;
 111E   :   B0;
 111F   :   50;
 1120   :    0;
 1121   :    0;
 1122   :   B0;
 1123   :   B0;
 1124   :   F0;
 1125   :    0;
 1126   :   20;
 1127   :    0;
 1128   :    0;
 1129   :    0;
 112A   :    0;
 112B   :    0;
 112C   :    0;
 112D   :   20;
 112E   :    4;
 112F   :    3;
 1130   :    2;
 1131   :   AD;
 1132   :   1A;
 1133   :    7;
 1134   :   85;
 1135   :   6D;
 1136   :   A9;
 1137   :   70;
 1138   :   8D;
 1139   :    A;
 113A   :    7;
 113B   :   A9;
 113C   :    1;
 113D   :   85;
 113E   :   33;
 113F   :   85;
 1140   :   B5;
 1141   :   A9;
 1142   :    0;
 1143   :   85;
 1144   :   1D;
 1145   :   CE;
 1146   :   90;
 1147   :    4;
 1148   :   A0;
 1149   :    0;
 114A   :   8C;
 114B   :   5B;
 114C   :    7;
 114D   :   AD;
 114E   :   4E;
 114F   :    7;
 1150   :   D0;
 1151   :    1;
 1152   :   C8;
 1153   :   8C;
 1154   :    4;
 1155   :    7;
 1156   :   AE;
 1157   :   10;
 1158   :    7;
 1159   :   AC;
 115A   :   52;
 115B   :    7;
 115C   :   F0;
 115D   :    7;
 115E   :   C0;
 115F   :    1;
 1160   :   F0;
 1161   :    3;
 1162   :   BE;
 1163   :   18;
 1164   :   91;
 1165   :   B9;
 1166   :   16;
 1167   :   91;
 1168   :   85;
 1169   :   86;
 116A   :   BD;
 116B   :   1C;
 116C   :   91;
 116D   :   85;
 116E   :   CE;
 116F   :   BD;
 1170   :   25;
 1171   :   91;
 1172   :   8D;
 1173   :   C4;
 1174   :    3;
 1175   :   20;
 1176   :   F1;
 1177   :   85;
 1178   :   AC;
 1179   :   15;
 117A   :    7;
 117B   :   F0;
 117C   :   1A;
 117D   :   AD;
 117E   :   57;
 117F   :    7;
 1180   :   F0;
 1181   :   15;
 1182   :   B9;
 1183   :   2D;
 1184   :   91;
 1185   :   8D;
 1186   :   F8;
 1187   :    7;
 1188   :   A9;
 1189   :    1;
 118A   :   8D;
 118B   :   FA;
 118C   :    7;
 118D   :   4A;
 118E   :   8D;
 118F   :   F9;
 1190   :    7;
 1191   :   8D;
 1192   :   57;
 1193   :    7;
 1194   :   8D;
 1195   :   9F;
 1196   :    7;
 1197   :   AC;
 1198   :   58;
 1199   :    7;
 119A   :   F0;
 119B   :   14;
 119C   :   A9;
 119D   :    3;
 119E   :   85;
 119F   :   1D;
 11A0   :   A2;
 11A1   :    0;
 11A2   :   20;
 11A3   :   89;
 11A4   :   BD;
 11A5   :   A9;
 11A6   :   F0;
 11A7   :   85;
 11A8   :   D7;
 11A9   :   A2;
 11AA   :    5;
 11AB   :   A0;
 11AC   :    0;
 11AD   :   20;
 11AE   :   23;
 11AF   :   B9;
 11B0   :   AC;
 11B1   :   4E;
 11B2   :    7;
 11B3   :   D0;
 11B4   :    3;
 11B5   :   20;
 11B6   :    B;
 11B7   :   B7;
 11B8   :   A9;
 11B9   :    7;
 11BA   :   85;
 11BB   :    E;
 11BC   :   60;
 11BD   :   56;
 11BE   :   40;
 11BF   :   65;
 11C0   :   70;
 11C1   :   66;
 11C2   :   40;
 11C3   :   66;
 11C4   :   40;
 11C5   :   66;
 11C6   :   40;
 11C7   :   66;
 11C8   :   60;
 11C9   :   65;
 11CA   :   70;
 11CB   :    0;
 11CC   :    0;
 11CD   :   EE;
 11CE   :   74;
 11CF   :    7;
 11D0   :   A9;
 11D1   :    0;
 11D2   :   8D;
 11D3   :   22;
 11D4   :    7;
 11D5   :   A9;
 11D6   :   80;
 11D7   :   85;
 11D8   :   FC;
 11D9   :   CE;
 11DA   :   5A;
 11DB   :    7;
 11DC   :   10;
 11DD   :    B;
 11DE   :   A9;
 11DF   :    0;
 11E0   :   8D;
 11E1   :   72;
 11E2   :    7;
 11E3   :   A9;
 11E4   :    3;
 11E5   :   8D;
 11E6   :   70;
 11E7   :    7;
 11E8   :   60;
 11E9   :   AD;
 11EA   :   5F;
 11EB   :    7;
 11EC   :    A;
 11ED   :   AA;
 11EE   :   AD;
 11EF   :   5C;
 11F0   :    7;
 11F1   :   29;
 11F2   :    2;
 11F3   :   F0;
 11F4   :    1;
 11F5   :   E8;
 11F6   :   BC;
 11F7   :   BD;
 11F8   :   91;
 11F9   :   AD;
 11FA   :   5C;
 11FB   :    7;
 11FC   :   4A;
 11FD   :   98;
 11FE   :   B0;
 11FF   :    4;
 1200   :   4A;
 1201   :   4A;
 1202   :   4A;
 1203   :   4A;
 1204   :   29;
 1205   :    F;
 1206   :   CD;
 1207   :   1A;
 1208   :    7;
 1209   :   F0;
 120A   :    4;
 120B   :   90;
 120C   :    2;
 120D   :   A9;
 120E   :    0;
 120F   :   8D;
 1210   :   5B;
 1211   :    7;
 1212   :   20;
 1213   :   82;
 1214   :   92;
 1215   :   4C;
 1216   :   64;
 1217   :   92;
 1218   :   AD;
 1219   :   72;
 121A   :    7;
 121B   :   20;
 121C   :    4;
 121D   :   8E;
 121E   :   24;
 121F   :   92;
 1220   :   67;
 1221   :   85;
 1222   :   37;
 1223   :   92;
 1224   :   A9;
 1225   :    0;
 1226   :   8D;
 1227   :   3C;
 1228   :    7;
 1229   :   8D;
 122A   :   22;
 122B   :    7;
 122C   :   A9;
 122D   :    2;
 122E   :   85;
 122F   :   FC;
 1230   :   EE;
 1231   :   74;
 1232   :    7;
 1233   :   EE;
 1234   :   72;
 1235   :    7;
 1236   :   60;
 1237   :   A9;
 1238   :    0;
 1239   :   8D;
 123A   :   74;
 123B   :    7;
 123C   :   AD;
 123D   :   FC;
 123E   :    6;
 123F   :   29;
 1240   :   10;
 1241   :   D0;
 1242   :    5;
 1243   :   AD;
 1244   :   A0;
 1245   :    7;
 1246   :   D0;
 1247   :   39;
 1248   :   A9;
 1249   :   80;
 124A   :   85;
 124B   :   FC;
 124C   :   20;
 124D   :   82;
 124E   :   92;
 124F   :   90;
 1250   :   13;
 1251   :   AD;
 1252   :   5F;
 1253   :    7;
 1254   :   8D;
 1255   :   FD;
 1256   :    7;
 1257   :   A9;
 1258   :    0;
 1259   :    A;
 125A   :   8D;
 125B   :   72;
 125C   :    7;
 125D   :   8D;
 125E   :   A0;
 125F   :    7;
 1260   :   8D;
 1261   :   70;
 1262   :    7;
 1263   :   60;
 1264   :   20;
 1265   :    3;
 1266   :   9C;
 1267   :   A9;
 1268   :    1;
 1269   :   8D;
 126A   :   54;
 126B   :    7;
 126C   :   EE;
 126D   :   57;
 126E   :    7;
 126F   :   A9;
 1270   :    0;
 1271   :   8D;
 1272   :   47;
 1273   :    7;
 1274   :   8D;
 1275   :   56;
 1276   :    7;
 1277   :   85;
 1278   :    E;
 1279   :   8D;
 127A   :   72;
 127B   :    7;
 127C   :   A9;
 127D   :    1;
 127E   :   8D;
 127F   :   70;
 1280   :    7;
 1281   :   60;
 1282   :   38;
 1283   :   AD;
 1284   :   7A;
 1285   :    7;
 1286   :   F0;
 1287   :   21;
 1288   :   AD;
 1289   :   61;
 128A   :    7;
 128B   :   30;
 128C   :   1C;
 128D   :   AD;
 128E   :   53;
 128F   :    7;
 1290   :   49;
 1291   :    1;
 1292   :   8D;
 1293   :   53;
 1294   :    7;
 1295   :   A2;
 1296   :    6;
 1297   :   BD;
 1298   :   5A;
 1299   :    7;
 129A   :   48;
 129B   :   BD;
 129C   :   61;
 129D   :    7;
 129E   :   9D;
 129F   :   5A;
 12A0   :    7;
 12A1   :   68;
 12A2   :   9D;
 12A3   :   61;
 12A4   :    7;
 12A5   :   CA;
 12A6   :   10;
 12A7   :   EF;
 12A8   :   18;
 12A9   :   60;
 12AA   :   A9;
 12AB   :   FF;
 12AC   :   8D;
 12AD   :   C9;
 12AE   :    6;
 12AF   :   60;
 12B0   :   AC;
 12B1   :   1F;
 12B2   :    7;
 12B3   :   D0;
 12B4   :    5;
 12B5   :   A0;
 12B6   :    8;
 12B7   :   8C;
 12B8   :   1F;
 12B9   :    7;
 12BA   :   88;
 12BB   :   98;
 12BC   :   20;
 12BD   :   C8;
 12BE   :   92;
 12BF   :   CE;
 12C0   :   1F;
 12C1   :    7;
 12C2   :   D0;
 12C3   :    3;
 12C4   :   20;
 12C5   :   6A;
 12C6   :   89;
 12C7   :   60;
 12C8   :   20;
 12C9   :    4;
 12CA   :   8E;
 12CB   :   DB;
 12CC   :   92;
 12CD   :   AE;
 12CE   :   88;
 12CF   :   AE;
 12D0   :   88;
 12D1   :   FC;
 12D2   :   93;
 12D3   :   DB;
 12D4   :   92;
 12D5   :   AE;
 12D6   :   88;
 12D7   :   AE;
 12D8   :   88;
 12D9   :   FC;
 12DA   :   93;
 12DB   :   EE;
 12DC   :   26;
 12DD   :    7;
 12DE   :   AD;
 12DF   :   26;
 12E0   :    7;
 12E1   :   29;
 12E2   :    F;
 12E3   :   D0;
 12E4   :    6;
 12E5   :   8D;
 12E6   :   26;
 12E7   :    7;
 12E8   :   EE;
 12E9   :   25;
 12EA   :    7;
 12EB   :   EE;
 12EC   :   A0;
 12ED   :    6;
 12EE   :   AD;
 12EF   :   A0;
 12F0   :    6;
 12F1   :   29;
 12F2   :   1F;
 12F3   :   8D;
 12F4   :   A0;
 12F5   :    6;
 12F6   :   60;
 12F7   :    0;
 12F8   :   30;
 12F9   :   60;
 12FA   :   93;
 12FB   :    0;
 12FC   :    0;
 12FD   :   11;
 12FE   :   12;
 12FF   :   12;
 1300   :   13;
 1301   :    0;
 1302   :    0;
 1303   :   51;
 1304   :   52;
 1305   :   53;
 1306   :    0;
 1307   :    0;
 1308   :    0;
 1309   :    0;
 130A   :    0;
 130B   :    0;
 130C   :    1;
 130D   :    2;
 130E   :    2;
 130F   :    3;
 1310   :    0;
 1311   :    0;
 1312   :    0;
 1313   :    0;
 1314   :    0;
 1315   :    0;
 1316   :   91;
 1317   :   92;
 1318   :   93;
 1319   :    0;
 131A   :    0;
 131B   :    0;
 131C   :    0;
 131D   :   51;
 131E   :   52;
 131F   :   53;
 1320   :   41;
 1321   :   42;
 1322   :   43;
 1323   :    0;
 1324   :    0;
 1325   :    0;
 1326   :    0;
 1327   :    0;
 1328   :   91;
 1329   :   92;
 132A   :   97;
 132B   :   87;
 132C   :   88;
 132D   :   89;
 132E   :   99;
 132F   :    0;
 1330   :    0;
 1331   :    0;
 1332   :   11;
 1333   :   12;
 1334   :   13;
 1335   :   A4;
 1336   :   A5;
 1337   :   A5;
 1338   :   A5;
 1339   :   A6;
 133A   :   97;
 133B   :   98;
 133C   :   99;
 133D   :    1;
 133E   :    2;
 133F   :    3;
 1340   :    0;
 1341   :   A4;
 1342   :   A5;
 1343   :   A6;
 1344   :    0;
 1345   :   11;
 1346   :   12;
 1347   :   12;
 1348   :   12;
 1349   :   13;
 134A   :    0;
 134B   :    0;
 134C   :    0;
[...]
 7B1F   :   31;
 7B20   :   71;
 7B21   :   31;
 7B22   :   90;
 7B23   :   90;
 7B24   :   90;
 7B25   :    0;
 7B26   :   82;
 7B27   :   34;
 7B28   :   84;
 7B29   :   2C;
 7B2A   :   85;
 7B2B   :   22;
 7B2C   :   84;
 7B2D   :   24;
 7B2E   :   82;
 7B2F   :   26;
 7B30   :   36;
 7B31   :    4;
 7B32   :   36;
 7B33   :   86;
 7B34   :   26;
 7B35   :    0;
 7B36   :   AC;
 7B37   :   27;
 7B38   :   5D;
 7B39   :   1D;
 7B3A   :   9E;
 7B3B   :   2D;
 7B3C   :   AC;
 7B3D   :   9F;
 7B3E   :   85;
 7B3F   :   14;
 7B40   :   82;
 7B41   :   20;
 7B42   :   84;
 7B43   :   22;
 7B44   :   2C;
 7B45   :   1E;
 7B46   :   1E;
 7B47   :   82;
 7B48   :   2C;
 7B49   :   2C;
 7B4A   :   1E;
 7B4B   :    4;
 7B4C   :   87;
 7B4D   :   2A;
 7B4E   :   40;
 7B4F   :   40;
 7B50   :   40;
 7B51   :   3A;
 7B52   :   36;
 7B53   :   82;
 7B54   :   34;
 7B55   :   2C;
 7B56   :    4;
 7B57   :   26;
 7B58   :   86;
 7B59   :   22;
 7B5A   :    0;
 7B5B   :   E3;
 7B5C   :   F7;
 7B5D   :   F7;
 7B5E   :   F7;
 7B5F   :   F5;
 7B60   :   F1;
 7B61   :   AC;
 7B62   :   27;
 7B63   :   9E;
 7B64   :   9D;
 7B65   :   85;
 7B66   :   18;
 7B67   :   82;
 7B68   :   1E;
 7B69   :   84;
 7B6A   :   22;
 7B6B   :   2A;
 7B6C   :   22;
 7B6D   :   22;
 7B6E   :   82;
 7B6F   :   2C;
 7B70   :   2C;
 7B71   :   22;
 7B72   :    4;
 7B73   :   86;
 7B74   :    4;
 7B75   :   82;
 7B76   :   2A;
 7B77   :   36;
 7B78   :    4;
 7B79   :   36;
 7B7A   :   87;
 7B7B   :   36;
 7B7C   :   34;
 7B7D   :   30;
 7B7E   :   86;
 7B7F   :   2C;
 7B80   :    4;
 7B81   :    0;
 7B82   :    0;
 7B83   :   68;
 7B84   :   6A;
 7B85   :   6C;
 7B86   :   45;
 7B87   :   A2;
 7B88   :   31;
 7B89   :   B0;
 7B8A   :   F1;
 7B8B   :   ED;
 7B8C   :   EB;
 7B8D   :   A2;
 7B8E   :   1D;
 7B8F   :   9C;
 7B90   :   95;
 7B91   :   86;
 7B92   :    4;
 7B93   :   85;
 7B94   :   22;
 7B95   :   82;
 7B96   :   22;
 7B97   :   87;
 7B98   :   22;
 7B99   :   26;
 7B9A   :   2A;
 7B9B   :   84;
 7B9C   :   2C;
 7B9D   :   22;
 7B9E   :   86;
 7B9F   :   14;
 7BA0   :   51;
 7BA1   :   90;
 7BA2   :   31;
 7BA3   :   11;
 7BA4   :    0;
 7BA5   :   80;
 7BA6   :   22;
 7BA7   :   28;
 7BA8   :   22;
 7BA9   :   26;
 7BAA   :   22;
 7BAB   :   24;
 7BAC   :   22;
 7BAD   :   26;
 7BAE   :   22;
 7BAF   :   28;
 7BB0   :   22;
 7BB1   :   2A;
 7BB2   :   22;
 7BB3   :   28;
 7BB4   :   22;
 7BB5   :   26;
 7BB6   :   22;
 7BB7   :   28;
 7BB8   :   22;
 7BB9   :   26;
 7BBA   :   22;
 7BBB   :   24;
 7BBC   :   22;
 7BBD   :   26;
 7BBE   :   22;
 7BBF   :   28;
 7BC0   :   22;
 7BC1   :   2A;
 7BC2   :   22;
 7BC3   :   28;
 7BC4   :   22;
 7BC5   :   26;
 7BC6   :   20;
 7BC7   :   26;
 7BC8   :   20;
 7BC9   :   24;
 7BCA   :   20;
 7BCB   :   26;
 7BCC   :   20;
 7BCD   :   28;
 7BCE   :   20;
 7BCF   :   26;
 7BD0   :   20;
 7BD1   :   28;
 7BD2   :   20;
 7BD3   :   26;
 7BD4   :   20;
 7BD5   :   24;
 7BD6   :   20;
 7BD7   :   26;
 7BD8   :   20;
 7BD9   :   24;
 7BDA   :   20;
 7BDB   :   26;
 7BDC   :   20;
 7BDD   :   28;
 7BDE   :   20;
 7BDF   :   26;
 7BE0   :   20;
 7BE1   :   28;
 7BE2   :   20;
 7BE3   :   26;
 7BE4   :   20;
 7BE5   :   24;
 7BE6   :   28;
 7BE7   :   30;
 7BE8   :   28;
 7BE9   :   32;
 7BEA   :   28;
 7BEB   :   30;
 7BEC   :   28;
 7BED   :   2E;
 7BEE   :   28;
 7BEF   :   30;
 7BF0   :   28;
 7BF1   :   2E;
 7BF2   :   28;
 7BF3   :   2C;
 7BF4   :   28;
 7BF5   :   2E;
 7BF6   :   28;
 7BF7   :   30;
 7BF8   :   28;
 7BF9   :   32;
 7BFA   :   28;
 7BFB   :   30;
 7BFC   :   28;
 7BFD   :   2E;
 7BFE   :   28;
 7BFF   :   30;
 7C00   :   28;
 7C01   :   2E;
 7C02   :   28;
 7C03   :   2C;
 7C04   :   28;
 7C05   :   2E;
 7C06   :    0;
 7C07   :    4;
 7C08   :   70;
 7C09   :   6E;
 7C0A   :   6C;
 7C0B   :   6E;
 7C0C   :   70;
 7C0D   :   72;
 7C0E   :   70;
 7C0F   :   6E;
 7C10   :   70;
 7C11   :   6E;
 7C12   :   6C;
 7C13   :   6E;
 7C14   :   70;
 7C15   :   72;
 7C16   :   70;
 7C17   :   6E;
 7C18   :   6E;
 7C19   :   6C;
 7C1A   :   6E;
 7C1B   :   70;
 7C1C   :   6E;
 7C1D   :   70;
 7C1E   :   6E;
 7C1F   :   6C;
 7C20   :   6E;
 7C21   :   6C;
 7C22   :   6E;
 7C23   :   70;
 7C24   :   6E;
 7C25   :   70;
 7C26   :   6E;
 7C27   :   6C;
 7C28   :   76;
 7C29   :   78;
 7C2A   :   76;
 7C2B   :   74;
 7C2C   :   76;
 7C2D   :   74;
 7C2E   :   72;
 7C2F   :   74;
 7C30   :   76;
 7C31   :   78;
 7C32   :   76;
 7C33   :   74;
 7C34   :   76;
 7C35   :   74;
 7C36   :   72;
 7C37   :   74;
 7C38   :   84;
 7C39   :   1A;
 7C3A   :   83;
 7C3B   :   18;
 7C3C   :   20;
 7C3D   :   84;
 7C3E   :   1E;
 7C3F   :   83;
 7C40   :   1C;
 7C41   :   28;
 7C42   :   26;
 7C43   :   1C;
 7C44   :   1A;
 7C45   :   1C;
 7C46   :   82;
 7C47   :   2C;
 7C48   :    4;
 7C49   :    4;
 7C4A   :   22;
 7C4B   :    4;
 7C4C   :    4;
 7C4D   :   84;
 7C4E   :   1C;
 7C4F   :   87;
 7C50   :   26;
 7C51   :   2A;
 7C52   :   26;
 7C53   :   84;
 7C54   :   24;
 7C55   :   28;
 7C56   :   24;
 7C57   :   80;
 7C58   :   22;
 7C59   :    0;
 7C5A   :   9C;
 7C5B   :    5;
 7C5C   :   94;
 7C5D   :    5;
 7C5E   :    D;
 7C5F   :   9F;
 7C60   :   1E;
 7C61   :   9C;
 7C62   :   98;
 7C63   :   9D;
 7C64   :   82;
 7C65   :   22;
 7C66   :    4;
 7C67   :    4;
 7C68   :   1C;
 7C69   :    4;
 7C6A   :    4;
 7C6B   :   84;
 7C6C   :   14;
 7C6D   :   86;
 7C6E   :   1E;
 7C6F   :   80;
 7C70   :   16;
 7C71   :   80;
 7C72   :   14;
 7C73   :   81;
 7C74   :   1C;
 7C75   :   30;
 7C76   :    4;
 7C77   :   30;
 7C78   :   30;
 7C79   :    4;
 7C7A   :   1E;
 7C7B   :   32;
 7C7C   :    4;
 7C7D   :   32;
 7C7E   :   32;
 7C7F   :    4;
 7C80   :   20;
 7C81   :   34;
 7C82   :    4;
 7C83   :   34;
 7C84   :   34;
 7C85   :    4;
 7C86   :   36;
 7C87   :    4;
 7C88   :   84;
 7C89   :   36;
 7C8A   :    0;
 7C8B   :   46;
 7C8C   :   A4;
 7C8D   :   64;
 7C8E   :   A4;
 7C8F   :   48;
 7C90   :   A6;
 7C91   :   66;
 7C92   :   A6;
 7C93   :   4A;
 7C94   :   A8;
 7C95   :   68;
 7C96   :   A8;
 7C97   :   6A;
 7C98   :   44;
 7C99   :   2B;
 7C9A   :   81;
 7C9B   :   2A;
 7C9C   :   42;
 7C9D   :    4;
 7C9E   :   42;
 7C9F   :   42;
 7CA0   :    4;
 7CA1   :   2C;
 7CA2   :   64;
 7CA3   :    4;
 7CA4   :   64;
 7CA5   :   64;
 7CA6   :    4;
 7CA7   :   2E;
 7CA8   :   46;
 7CA9   :    4;
 7CAA   :   46;
 7CAB   :   46;
 7CAC   :    4;
 7CAD   :   22;
 7CAE   :    4;
 7CAF   :   84;
 7CB0   :   22;
 7CB1   :   87;
 7CB2   :    4;
 7CB3   :    6;
 7CB4   :    C;
 7CB5   :   14;
 7CB6   :   1C;
 7CB7   :   22;
 7CB8   :   86;
 7CB9   :   2C;
 7CBA   :   22;
 7CBB   :   87;
 7CBC   :    4;
 7CBD   :   60;
 7CBE   :    E;
 7CBF   :   14;
 7CC0   :   1A;
 7CC1   :   24;
 7CC2   :   86;
 7CC3   :   2C;
 7CC4   :   24;
 7CC5   :   87;
 7CC6   :    4;
 7CC7   :    8;
 7CC8   :   10;
 7CC9   :   18;
 7CCA   :   1E;
 7CCB   :   28;
 7CCC   :   86;
 7CCD   :   30;
 7CCE   :   30;
 7CCF   :   80;
 7CD0   :   64;
 7CD1   :    0;
 7CD2   :   CD;
 7CD3   :   D5;
 7CD4   :   DD;
 7CD5   :   E3;
 7CD6   :   ED;
 7CD7   :   F5;
 7CD8   :   BB;
 7CD9   :   B5;
 7CDA   :   CF;
 7CDB   :   D5;
 7CDC   :   DB;
 7CDD   :   E5;
 7CDE   :   ED;
 7CDF   :   F3;
 7CE0   :   BD;
 7CE1   :   B3;
 7CE2   :   D1;
 7CE3   :   D9;
 7CE4   :   DF;
 7CE5   :   E9;
 7CE6   :   F1;
 7CE7   :   F7;
 7CE8   :   BF;
 7CE9   :   FF;
 7CEA   :   FF;
 7CEB   :   FF;
 7CEC   :   34;
 7CED   :    0;
 7CEE   :   86;
 7CEF   :    4;
 7CF0   :   87;
 7CF1   :   14;
 7CF2   :   1C;
 7CF3   :   22;
 7CF4   :   86;
 7CF5   :   34;
 7CF6   :   84;
 7CF7   :   2C;
 7CF8   :    4;
 7CF9   :    4;
 7CFA   :    4;
 7CFB   :   87;
 7CFC   :   14;
 7CFD   :   1A;
 7CFE   :   24;
 7CFF   :   86;
 7D00   :   32;
 7D01   :   84;
 7D02   :   2C;
 7D03   :    4;
 7D04   :   86;
 7D05   :    4;
 7D06   :   87;
 7D07   :   18;
 7D08   :   1E;
 7D09   :   28;
 7D0A   :   86;
 7D0B   :   36;
 7D0C   :   87;
 7D0D   :   30;
 7D0E   :   30;
 7D0F   :   30;
 7D10   :   80;
 7D11   :   2C;
 7D12   :   82;
 7D13   :   14;
 7D14   :   2C;
 7D15   :   62;
 7D16   :   26;
 7D17   :   10;
 7D18   :   28;
 7D19   :   80;
 7D1A   :    4;
 7D1B   :   82;
 7D1C   :   14;
 7D1D   :   2C;
 7D1E   :   62;
 7D1F   :   26;
 7D20   :   10;
 7D21   :   28;
 7D22   :   80;
 7D23   :    4;
 7D24   :   82;
 7D25   :    8;
 7D26   :   1E;
 7D27   :   5E;
 7D28   :   18;
 7D29   :   60;
 7D2A   :   1A;
 7D2B   :   80;
 7D2C   :    4;
 7D2D   :   82;
 7D2E   :    8;
 7D2F   :   1E;
 7D30   :   5E;
 7D31   :   18;
 7D32   :   60;
 7D33   :   1A;
 7D34   :   86;
 7D35   :    4;
 7D36   :   83;
 7D37   :   1A;
 7D38   :   18;
 7D39   :   16;
 7D3A   :   84;
 7D3B   :   14;
 7D3C   :   1A;
 7D3D   :   18;
 7D3E   :    E;
 7D3F   :    C;
 7D40   :   16;
 7D41   :   83;
 7D42   :   14;
 7D43   :   20;
 7D44   :   1E;
 7D45   :   1C;
 7D46   :   28;
 7D47   :   26;
 7D48   :   87;
 7D49   :   24;
 7D4A   :   1A;
 7D4B   :   12;
 7D4C   :   10;
 7D4D   :   62;
 7D4E   :    E;
 7D4F   :   80;
 7D50   :    4;
 7D51   :    4;
 7D52   :    0;
 7D53   :   82;
 7D54   :   18;
 7D55   :   1C;
 7D56   :   20;
 7D57   :   22;
 7D58   :   26;
 7D59   :   28;
 7D5A   :   81;
 7D5B   :   2A;
 7D5C   :   2A;
 7D5D   :   2A;
 7D5E   :    4;
 7D5F   :   2A;
 7D60   :    4;
 7D61   :   83;
 7D62   :   2A;
 7D63   :   82;
 7D64   :   22;
 7D65   :   86;
 7D66   :   34;
 7D67   :   32;
 7D68   :   34;
 7D69   :   81;
 7D6A   :    4;
 7D6B   :   22;
 7D6C   :   26;
 7D6D   :   2A;
 7D6E   :   2C;
 7D6F   :   30;
 7D70   :   86;
 7D71   :   34;
 7D72   :   83;
 7D73   :   32;
 7D74   :   82;
 7D75   :   36;
 7D76   :   84;
 7D77   :   34;
 7D78   :   85;
 7D79   :    4;
 7D7A   :   81;
 7D7B   :   22;
 7D7C   :   86;
 7D7D   :   30;
 7D7E   :   2E;
 7D7F   :   30;
 7D80   :   81;
 7D81   :    4;
 7D82   :   22;
 7D83   :   26;
 7D84   :   2A;
 7D85   :   2C;
 7D86   :   2E;
 7D87   :   86;
 7D88   :   30;
 7D89   :   83;
 7D8A   :   22;
 7D8B   :   82;
 7D8C   :   36;
 7D8D   :   84;
 7D8E   :   34;
 7D8F   :   85;
 7D90   :    4;
 7D91   :   81;
 7D92   :   22;
 7D93   :   86;
 7D94   :   3A;
 7D95   :   3A;
 7D96   :   3A;
 7D97   :   82;
 7D98   :   3A;
 7D99   :   81;
 7D9A   :   40;
 7D9B   :   82;
 7D9C   :    4;
 7D9D   :   81;
 7D9E   :   3A;
 7D9F   :   86;
 7DA0   :   36;
 7DA1   :   36;
 7DA2   :   36;
 7DA3   :   82;
 7DA4   :   36;
 7DA5   :   81;
 7DA6   :   3A;
 7DA7   :   82;
 7DA8   :    4;
 7DA9   :   81;
 7DAA   :   36;
 7DAB   :   86;
 7DAC   :   34;
 7DAD   :   82;
 7DAE   :   26;
 7DAF   :   2A;
 7DB0   :   36;
 7DB1   :   81;
 7DB2   :   34;
 7DB3   :   34;
 7DB4   :   85;
 7DB5   :   34;
 7DB6   :   81;
 7DB7   :   2A;
 7DB8   :   86;
 7DB9   :   2C;
 7DBA   :    0;
 7DBB   :   84;
 7DBC   :   90;
 7DBD   :   B0;
 7DBE   :   84;
 7DBF   :   50;
 7DC0   :   50;
 7DC1   :   B0;
 7DC2   :    0;
 7DC3   :   98;
 7DC4   :   96;
 7DC5   :   94;
 7DC6   :   92;
 7DC7   :   94;
 7DC8   :   96;
 7DC9   :   58;
 7DCA   :   58;
 7DCB   :   58;
 7DCC   :   44;
 7DCD   :   5C;
 7DCE   :   44;
 7DCF   :   9F;
 7DD0   :   A3;
 7DD1   :   A1;
 7DD2   :   A3;
 7DD3   :   85;
 7DD4   :   A3;
 7DD5   :   E0;
 7DD6   :   A6;
 7DD7   :   23;
 7DD8   :   C4;
 7DD9   :   9F;
 7DDA   :   9D;
 7DDB   :   9F;
 7DDC   :   85;
 7DDD   :   9F;
 7DDE   :   D2;
 7DDF   :   A6;
 7DE0   :   23;
 7DE1   :   C4;
 7DE2   :   B5;
 7DE3   :   B1;
 7DE4   :   AF;
 7DE5   :   85;
 7DE6   :   B1;
 7DE7   :   AF;
 7DE8   :   AD;
 7DE9   :   85;
 7DEA   :   95;
 7DEB   :   9E;
 7DEC   :   A2;
 7DED   :   AA;
 7DEE   :   6A;
 7DEF   :   6A;
 7DF0   :   6B;
 7DF1   :   5E;
 7DF2   :   9D;
 7DF3   :   84;
 7DF4   :    4;
 7DF5   :    4;
 7DF6   :   82;
 7DF7   :   22;
 7DF8   :   86;
 7DF9   :   22;
 7DFA   :   82;
 7DFB   :   14;
 7DFC   :   22;
 7DFD   :   2C;
 7DFE   :   12;
 7DFF   :   22;
 7E00   :   2A;
 7E01   :   14;
 7E02   :   22;
 7E03   :   2C;
 7E04   :   1C;
 7E05   :   22;
 7E06   :   2C;
 7E07   :   14;
 7E08   :   22;
 7E09   :   2C;
 7E0A   :   12;
 7E0B   :   22;
 7E0C   :   2A;
 7E0D   :   14;
 7E0E   :   22;
 7E0F   :   2C;
 7E10   :   1C;
 7E11   :   22;
 7E12   :   2C;
 7E13   :   18;
 7E14   :   22;
 7E15   :   2A;
 7E16   :   16;
 7E17   :   20;
 7E18   :   28;
 7E19   :   18;
 7E1A   :   22;
 7E1B   :   2A;
 7E1C   :   12;
 7E1D   :   22;
 7E1E   :   2A;
 7E1F   :   18;
 7E20   :   22;
 7E21   :   2A;
 7E22   :   12;
 7E23   :   22;
 7E24   :   2A;
 7E25   :   14;
 7E26   :   22;
 7E27   :   2C;
 7E28   :    C;
 7E29   :   22;
 7E2A   :   2C;
 7E2B   :   14;
 7E2C   :   22;
 7E2D   :   34;
 7E2E   :   12;
 7E2F   :   22;
 7E30   :   30;
 7E31   :   10;
 7E32   :   22;
 7E33   :   2E;
 7E34   :   16;
 7E35   :   22;
 7E36   :   34;
 7E37   :   18;
 7E38   :   26;
 7E39   :   36;
 7E3A   :   16;
 7E3B   :   26;
 7E3C   :   36;
 7E3D   :   14;
 7E3E   :   26;
 7E3F   :   36;
 7E40   :   12;
 7E41   :   22;
 7E42   :   36;
 7E43   :   5C;
 7E44   :   22;
 7E45   :   34;
 7E46   :    C;
 7E47   :   22;
 7E48   :   22;
 7E49   :   81;
 7E4A   :   1E;
 7E4B   :   1E;
 7E4C   :   85;
 7E4D   :   1E;
 7E4E   :   81;
 7E4F   :   12;
 7E50   :   86;
 7E51   :   14;
 7E52   :   81;
 7E53   :   2C;
 7E54   :   22;
 7E55   :   1C;
 7E56   :   2C;
 7E57   :   22;
 7E58   :   1C;
 7E59   :   85;
 7E5A   :   2C;
 7E5B   :    4;
 7E5C   :   81;
 7E5D   :   2E;
 7E5E   :   24;
 7E5F   :   1E;
 7E60   :   2E;
 7E61   :   24;
 7E62   :   1E;
 7E63   :   85;
 7E64   :   2E;
 7E65   :    4;
 7E66   :   81;
 7E67   :   32;
 7E68   :   28;
 7E69   :   22;
 7E6A   :   32;
 7E6B   :   28;
 7E6C   :   22;
 7E6D   :   85;
 7E6E   :   32;
 7E6F   :   87;
 7E70   :   36;
 7E71   :   36;
 7E72   :   36;
 7E73   :   84;
 7E74   :   3A;
 7E75   :    0;
 7E76   :   5C;
 7E77   :   54;
 7E78   :   4C;
 7E79   :   5C;
 7E7A   :   54;
 7E7B   :   4C;
 7E7C   :   5C;
 7E7D   :   1C;
 7E7E   :   1C;
 7E7F   :   5C;
 7E80   :   5C;
 7E81   :   5C;
 7E82   :   5C;
 7E83   :   5E;
 7E84   :   56;
 7E85   :   4E;
 7E86   :   5E;
 7E87   :   56;
 7E88   :   4E;
 7E89   :   5E;
 7E8A   :   1E;
 7E8B   :   1E;
 7E8C   :   5E;
 7E8D   :   5E;
 7E8E   :   5E;
 7E8F   :   5E;
 7E90   :   62;
 7E91   :   5A;
 7E92   :   50;
 7E93   :   62;
 7E94   :   5A;
 7E95   :   50;
 7E96   :   62;
 7E97   :   22;
 7E98   :   22;
 7E99   :   62;
 7E9A   :   E7;
 7E9B   :   E7;
 7E9C   :   E7;
 7E9D   :   2B;
 7E9E   :   86;
 7E9F   :   14;
 7EA0   :   81;
 7EA1   :   14;
 7EA2   :   80;
 7EA3   :   14;
 7EA4   :   14;
 7EA5   :   81;
 7EA6   :   14;
 7EA7   :   14;
 7EA8   :   14;
 7EA9   :   14;
 7EAA   :   86;
 7EAB   :   16;
 7EAC   :   81;
 7EAD   :   16;
 7EAE   :   80;
 7EAF   :   16;
 7EB0   :   16;
 7EB1   :   81;
 7EB2   :   16;
 7EB3   :   16;
 7EB4   :   16;
 7EB5   :   16;
 7EB6   :   81;
 7EB7   :   28;
 7EB8   :   22;
 7EB9   :   1A;
 7EBA   :   28;
 7EBB   :   22;
 7EBC   :   1A;
 7EBD   :   28;
 7EBE   :   80;
 7EBF   :   28;
 7EC0   :   28;
 7EC1   :   81;
 7EC2   :   28;
 7EC3   :   87;
 7EC4   :   2C;
 7EC5   :   2C;
 7EC6   :   2C;
 7EC7   :   84;
 7EC8   :   30;
 7EC9   :   83;
 7ECA   :    4;
 7ECB   :   84;
 7ECC   :    C;
 7ECD   :   83;
 7ECE   :   62;
 7ECF   :   10;
 7ED0   :   84;
 7ED1   :   12;
 7ED2   :   83;
 7ED3   :   1C;
 7ED4   :   22;
 7ED5   :   1E;
 7ED6   :   22;
 7ED7   :   26;
 7ED8   :   18;
 7ED9   :   1E;
 7EDA   :    4;
 7EDB   :   1C;
 7EDC   :    0;
 7EDD   :   E3;
 7EDE   :   E1;
 7EDF   :   E3;
 7EE0   :   1D;
 7EE1   :   DE;
 7EE2   :   E0;
 7EE3   :   23;
 7EE4   :   EC;
 7EE5   :   75;
 7EE6   :   74;
 7EE7   :   F0;
 7EE8   :   F4;
 7EE9   :   F6;
 7EEA   :   EA;
 7EEB   :   31;
 7EEC   :   2D;
 7EED   :   83;
 7EEE   :   12;
 7EEF   :   14;
 7EF0   :    4;
 7EF1   :   18;
 7EF2   :   1A;
 7EF3   :   1C;
 7EF4   :   14;
 7EF5   :   26;
 7EF6   :   22;
 7EF7   :   1E;
 7EF8   :   1C;
 7EF9   :   18;
 7EFA   :   1E;
 7EFB   :   22;
 7EFC   :    C;
 7EFD   :   14;
 7EFE   :   FF;
 7EFF   :   FF;
 7F00   :    0;
 7F01   :   88;
 7F02   :    0;
 7F03   :   2B;
 7F04   :    0;
 7F05   :    0;
 7F06   :    2;
 7F07   :   72;
 7F08   :    2;
 7F09   :   4F;
 7F0A   :    2;
 7F0B   :   2E;
 7F0C   :    2;
 7F0D   :    E;
 7F0E   :    1;
 7F0F   :   F1;
 7F10   :    1;
 7F11   :   BA;
 7F12   :    1;
 7F13   :   A1;
 7F14   :    1;
 7F15   :   8A;
 7F16   :    1;
 7F17   :   74;
 7F18   :    1;
 7F19   :   5F;
 7F1A   :    1;
 7F1B   :   4B;
 7F1C   :    1;
 7F1D   :   39;
 7F1E   :    1;
 7F1F   :   27;
 7F20   :    1;
 7F21   :   17;
 7F22   :    1;
 7F23   :    7;
 7F24   :    0;
 7F25   :   F8;
 7F26   :    0;
 7F27   :   EA;
 7F28   :    0;
 7F29   :   DD;
 7F2A   :    0;
 7F2B   :   D1;
 7F2C   :    0;
 7F2D   :   C5;
 7F2E   :    0;
 7F2F   :   BA;
 7F30   :    0;
 7F31   :   AF;
 7F32   :    0;
 7F33   :   A5;
 7F34   :    0;
 7F35   :   9C;
 7F36   :    0;
 7F37   :   94;
 7F38   :    0;
 7F39   :   8B;
 7F3A   :    0;
 7F3B   :   83;
 7F3C   :    0;
 7F3D   :   7C;
 7F3E   :    0;
 7F3F   :   6E;
 7F40   :    0;
 7F41   :   74;
 7F42   :    0;
 7F43   :   68;
 7F44   :    0;
 7F45   :   4E;
 7F46   :    0;
 7F47   :   5C;
 7F48   :    0;
 7F49   :   58;
 7F4A   :    0;
 7F4B   :   52;
 7F4C   :    0;
 7F4D   :   4A;
 7F4E   :    0;
 7F4F   :   42;
 7F50   :    0;
 7F51   :   3E;
 7F52   :    0;
 7F53   :   36;
 7F54   :    0;
 7F55   :   31;
 7F56   :    0;
 7F57   :   27;
 7F58   :    0;
 7F59   :   20;
 7F5A   :    4;
 7F5B   :   1D;
 7F5C   :    3;
 7F5D   :   15;
 7F5E   :    2;
 7F5F   :   BE;
 7F60   :    2;
 7F61   :   98;
 7F62   :    1;
 7F63   :   D5;
 7F64   :    0;
 7F65   :   62;
 7F66   :    4;
 7F67   :    8;
 7F68   :   10;
 7F69   :   20;
 7F6A   :   40;
 7F6B   :   18;
 7F6C   :   30;
 7F6D   :    C;
 7F6E   :    3;
 7F6F   :    6;
 7F70   :    C;
 7F71   :   18;
 7F72   :   30;
 7F73   :   12;
 7F74   :   24;
 7F75   :    8;
 7F76   :    3;
 7F77   :    6;
 7F78   :    C;
 7F79   :   18;
 7F7A   :   30;
 7F7B   :   12;
 7F7C   :   24;
 7F7D   :    8;
 7F7E   :   24;
 7F7F   :    2;
 7F80   :    6;
 7F81   :    4;
 7F82   :    C;
 7F83   :   12;
 7F84   :   18;
 7F85   :    8;
 7F86   :   1B;
 7F87   :    1;
 7F88   :    5;
 7F89   :    3;
 7F8A   :    9;
 7F8B   :    D;
 7F8C   :   12;
 7F8D   :    6;
 7F8E   :   12;
 7F8F   :    1;
 7F90   :    3;
 7F91   :    2;
 7F92   :    6;
 7F93   :    9;
 7F94   :    C;
 7F95   :    4;
 7F96   :   98;
 7F97   :   99;
 7F98   :   9A;
 7F99   :   9B;
 7F9A   :   90;
 7F9B   :   94;
 7F9C   :   94;
 7F9D   :   95;
 7F9E   :   95;
 7F9F   :   96;
 7FA0   :   97;
 7FA1   :   98;
 7FA2   :   90;
 7FA3   :   91;
 7FA4   :   92;
 7FA5   :   92;
 7FA6   :   93;
 7FA7   :   93;
 7FA8   :   93;
 7FA9   :   94;
 7FAA   :   94;
 7FAB   :   94;
 7FAC   :   94;
 7FAD   :   94;
 7FAE   :   94;
 7FAF   :   95;
 7FB0   :   95;
 7FB1   :   95;
 7FB2   :   95;
 7FB3   :   95;
 7FB4   :   95;
 7FB5   :   96;
 7FB6   :   96;
 7FB7   :   96;
 7FB8   :   96;
 7FB9   :   96;
 7FBA   :   96;
 7FBB   :   96;
 7FBC   :   96;
 7FBD   :   96;
 7FBE   :   96;
 7FBF   :   96;
 7FC0   :   96;
 7FC1   :   96;
 7FC2   :   96;
 7FC3   :   96;
 7FC4   :   96;
 7FC5   :   96;
 7FC6   :   95;
 7FC7   :   95;
 7FC8   :   94;
 7FC9   :   93;
 7FCA   :   15;
 7FCB   :   16;
 7FCC   :   16;
 7FCD   :   17;
 7FCE   :   17;
 7FCF   :   18;
 7FD0   :   19;
 7FD1   :   19;
 7FD2   :   1A;
 7FD3   :   1A;
 7FD4   :   1C;
 7FD5   :   1D;
 7FD6   :   1D;
 7FD7   :   1E;
 7FD8   :   1E;
 7FD9   :   1F;
 7FDA   :   1F;
 7FDB   :   1F;
 7FDC   :   1F;
 7FDD   :   1E;
 7FDE   :   1D;
 7FDF   :   1C;
 7FE0   :   1E;
 7FE1   :   1F;
 7FE2   :   1F;
 7FE3   :   1E;
 7FE4   :   1D;
 7FE5   :   1C;
 7FE6   :   1A;
 7FE7   :   18;
 7FE8   :   16;
 7FE9   :   14;
 7FEA   :   15;
 7FEB   :   16;
 7FEC   :   16;
 7FED   :   17;
 7FEE   :   17;
 7FEF   :   18;
 7FF0   :   19;
 7FF1   :   19;
 7FF2   :   1A;
 7FF3   :   1A;
 7FF4   :   1C;
 7FF5   :   1D;
 7FF6   :   1D;
 7FF7   :   1E;
 7FF8   :   1E;
 7FF9   :   1F;
 7FFA   :   82;
 7FFB   :   80;
 7FFC   :    0;
 7FFD   :   80;
 7FFE   :   F0;
 7FFF   :   FF;
END; 