-- Copyright (C) 1991-2013 Altera Corporation
-- Your use of Altera Corporation's design tools, logic functions 
-- and other software and tools, and its AMPP partner logic 
-- functions, and any output files from any of the foregoing 
-- (including device programming or simulation files), and any 
-- associated documentation or information are expressly subject 
-- to the terms and conditions of the Altera Program License 
-- Subscription Agreement, Altera MegaCore Function License 
-- Agreement, or other applicable license agreement, including, 
-- without limitation, that your use is for the sole purpose of 
-- programming logic devices manufactured by Altera and sold by 
-- Altera or its authorized distributors.  Please refer to the 
-- applicable agreement for further details.

-- Quartus II generated Memory Initialization File (.mif)

WIDTH=8;
DEPTH=32768;

ADDRESS_RADIX=HEX;
DATA_RADIX=HEX;

CONTENT BEGIN    
    0   :   48;
    1   :   AD;
    2   :    7;
    3   :   20;
    4   :   48;
    5   :   AD;
    6   :    7;
    7   :   20;
    8   :   48;
    9   :   AD;
    A   :    7;
    B   :   20;
    C   :   48;
    D   :   4C;
    E   :   9E;
    F   :   D5;
   10   :   4C;
   11   :   29;
   12   :   86;
   13   :   20;
   14   :   80;
   15   :   84;
   16   :   4C;
   17   :   9A;
   18   :   D6;
   19   :   4C;
   1A   :   2A;
   1B   :   B4;
   1C   :   4C;
   1D   :   BA;
   1E   :   93;
   1F   :   4C;
   20   :   3A;
   21   :   E2;
   22   :   4C;
   23   :   A8;
   24   :   DF;
   25   :   A2;
   26   :   9C;
   27   :   A0;
   28   :   84;
   29   :   4C;
   2A   :    1;
   2B   :   8C;
   2C   :   4C;
   2D   :   1B;
   2E   :   B6;
   2F   :   B9;
   30   :   54;
   31   :    6;
   32   :   4A;
   33   :   4A;
   34   :   4A;
   35   :   4A;
   36   :   4A;
   37   :   9D;
   38   :   C3;
   39   :    4;
   3A   :   B9;
   3B   :   55;
   3C   :    6;
   3D   :   9D;
   3E   :   D7;
   3F   :    4;
   40   :   B9;
   41   :   54;
   42   :    6;
   43   :   4A;
   44   :   4A;
   45   :   29;
   46   :    7;
   47   :   9D;
   48   :   EB;
   49   :    4;
   4A   :   B9;
   4B   :   56;
   4C   :    6;
   4D   :   9D;
   4E   :   FF;
   4F   :    4;
   50   :   B9;
   51   :   58;
   52   :    6;
   53   :    A;
   54   :   B9;
   55   :   54;
   56   :    6;
   57   :   2A;
   58   :   29;
   59   :    7;
   5A   :   9D;
   5B   :   13;
   5C   :    5;
   5D   :   B9;
   5E   :   57;
   5F   :    6;
   60   :   9D;
   61   :   27;
   62   :    5;
   63   :   60;
   64   :   C0;
   65   :    0;
   66   :   D0;
   67   :   18;
   68   :   BD;
   69   :   3B;
   6A   :    5;
   6B   :   18;
   6C   :   7D;
   6D   :   4F;
   6E   :    5;
   6F   :   BD;
   70   :   D7;
   71   :    4;
   72   :   7D;
   73   :   FF;
   74   :    4;
   75   :   85;
   76   :    4;
   77   :   BD;
   78   :   C3;
   79   :    4;
   7A   :   7D;
   7B   :   EB;
   7C   :    4;
   7D   :   85;
   7E   :    5;
   7F   :   60;
   80   :   BD;
   81   :   3B;
   82   :    5;
   83   :   38;
   84   :   FD;
   85   :   4F;
   86   :    5;
   87   :   BD;
   88   :   D7;
   89   :    4;
   8A   :   FD;
   8B   :   FF;
   8C   :    4;
   8D   :   85;
   8E   :    4;
   8F   :   BD;
   90   :   C3;
   91   :    4;
   92   :   FD;
   93   :   EB;
   94   :    4;
   95   :   6A;
   96   :   66;
   97   :    4;
   98   :   85;
   99   :    5;
   9A   :   A5;
   9B   :    4;
   9C   :   38;
   9D   :   FD;
   9E   :   27;
   9F   :    5;
   A0   :   85;
   A1   :   86;
   A2   :   A5;
   A3   :    5;
   A4   :   FD;
   A5   :   13;
   A6   :    5;
   A7   :   85;
   A8   :    5;
   A9   :   A5;
   AA   :   86;
   AB   :   18;
   AC   :   7D;
   AD   :   77;
   AE   :    5;
   AF   :   90;
   B0   :    2;
   B1   :   E6;
   B2   :    5;
   B3   :   85;
   B4   :    4;
   B5   :   60;
   B6   :   86;
   B7   :    8;
   B8   :   84;
   B9   :    9;
   BA   :   A0;
   BB   :    0;
   BC   :   85;
   BD   :    4;
   BE   :   B1;
   BF   :    8;
   C0   :   85;
   C1   :    C;
   C2   :   C8;
   C3   :   B1;
   C4   :    8;
   C5   :   85;
   C6   :    D;
   C7   :   C8;
   C8   :   84;
   C9   :    F;
   CA   :   A9;
   CB   :    0;
   CC   :   20;
   CD   :   C9;
   CE   :   E2;
   CF   :   A4;
   D0   :    F;
   D1   :   A9;
   D2   :    2;
   D3   :   20;
   D4   :   C9;
   D5   :   E2;
   D6   :   C6;
   D7   :    4;
   D8   :   D0;
   D9   :   E4;
   DA   :   60;
   DB   :   A9;
   DC   :   23;
   DD   :   8D;
   DE   :    6;
   DF   :   20;
   E0   :   A9;
   E1   :   C0;
   E2   :   8D;
   E3   :    6;
   E4   :   20;
   E5   :   A0;
   E6   :   40;
   E7   :   20;
   E8   :   50;
   E9   :   C3;
   EA   :   8D;
   EB   :    7;
   EC   :   20;
   ED   :   88;
   EE   :   F0;
   EF   :    6;
   F0   :   C6;
   F1   :    4;
   F2   :   D0;
   F3   :   F6;
   F4   :   F0;
   F5   :   F1;
   F6   :   60;
   F7   :   86;
   F8   :    4;
   F9   :   A2;
   FA   :    0;
   FB   :   A9;
   FC   :   3F;
   FD   :   8D;
   FE   :    6;
   FF   :   20;
  100   :   8E;
  101   :    6;
  102   :   20;
  103   :   A0;
  104   :    0;
  105   :   B5;
  106   :   29;
  107   :   38;
  108   :   F9;
  109   :   4C;
  10A   :    0;
  10B   :   B0;
  10C   :    2;
  10D   :   A9;
  10E   :    F;
  10F   :   8D;
  110   :    7;
  111   :   20;
  112   :   E8;
  113   :   8A;
  114   :   29;
  115   :    3;
  116   :   D0;
  117   :   ED;
  118   :   C8;
  119   :   C4;
  11A   :    4;
  11B   :   D0;
  11C   :   E8;
  11D   :   A2;
  11E   :   20;
  11F   :   8E;
  120   :    6;
  121   :   20;
  122   :   A9;
  123   :    0;
  124   :   8D;
  125   :    6;
  126   :   20;
  127   :   60;
  128   :   86;
  129   :   10;
  12A   :   84;
  12B   :   11;
  12C   :   A5;
  12D   :    1;
  12E   :    9;
  12F   :   1E;
  130   :   85;
  131   :    1;
  132   :   A9;
  133   :    0;
  134   :   85;
  135   :    2;
  136   :   85;
  137   :    3;
  138   :   AD;
  139   :    2;
  13A   :   20;
  13B   :   A9;
  13C   :   90;
  13D   :   D0;
  13E   :    5;
  13F   :   AD;
  140   :    2;
  141   :   20;
  142   :   A5;
  143   :    0;
  144   :    9;
  145   :   80;
  146   :   85;
  147   :    0;
  148   :   8D;
  149   :    0;
  14A   :   20;
  14B   :   20;
  14C   :   C9;
  14D   :   D2;
  14E   :   30;
  14F   :   FB;
  150   :   25;
  151   :    2;
  152   :   D0;
  153   :   17;
  154   :   A8;
  155   :   B9;
  156   :   4C;
  157   :    0;
  158   :   C9;
  159   :   51;
  15A   :   90;
  15B   :    2;
  15C   :   69;
  15D   :    E;
  15E   :   38;
  15F   :   E9;
  160   :   10;
  161   :   90;
  162   :    3;
  163   :   99;
  164   :   4C;
  165   :    0;
  166   :   C8;
  167   :   C0;
  168   :    8;
  169   :   D0;
  16A   :   EA;
  16B   :   60;
  16C   :   A2;
  16D   :    0;
  16E   :   A9;
  16F   :   F8;
  170   :   9D;
  171   :    0;
  172   :    2;
  173   :   E8;
  174   :   E8;
  175   :   E8;
  176   :   E8;
  177   :   D0;
  178   :   F7;
  179   :   60;
  17A   :   A9;
  17B   :    0;
  17C   :   A0;
  17D   :    2;
  17E   :   85;
  17F   :   90;
  180   :   D9;
  181   :   9B;
  182   :    4;
  183   :   F0;
  184   :   11;
  185   :   C8;
  186   :   C0;
  187   :   14;
  188   :   D0;
  189   :   F4;
  18A   :   88;
  18B   :   A5;
  18C   :   90;
  18D   :   D0;
  18E   :    7;
  18F   :   B9;
  190   :   9B;
  191   :    4;
  192   :   C9;
  193   :    5;
  194   :   F0;
  195   :   F4;
  196   :   60;
  197   :   BD;
  198   :   13;
  199   :    5;
  19A   :   99;
  19B   :   13;
  19C   :    5;
  19D   :   BD;
  19E   :   27;
  19F   :    5;
  1A0   :   99;
  1A1   :   27;
  1A2   :    5;
  1A3   :   60;
  1A4   :   20;
  1A5   :   97;
  1A6   :   81;
  1A7   :   BD;
  1A8   :   C3;
  1A9   :    4;
  1AA   :   99;
  1AB   :   C3;
  1AC   :    4;
  1AD   :   BD;
  1AE   :   D7;
  1AF   :    4;
  1B0   :   99;
  1B1   :   D7;
  1B2   :    4;
  1B3   :   BD;
  1B4   :   EB;
  1B5   :    4;
  1B6   :   99;
  1B7   :   EB;
  1B8   :    4;
  1B9   :   BD;
  1BA   :   FF;
  1BB   :    4;
  1BC   :   99;
  1BD   :   FF;
  1BE   :    4;
  1BF   :   B9;
  1C0   :   27;
  1C1   :    5;
  1C2   :   60;
  1C3   :   A9;
  1C4   :    3;
  1C5   :   25;
  1C6   :    2;
  1C7   :   D0;
  1C8   :   11;
  1C9   :   A8;
  1CA   :   B9;
  1CB   :   4C;
  1CC   :    0;
  1CD   :   18;
  1CE   :   69;
  1CF   :   10;
  1D0   :   99;
  1D1   :   4C;
  1D2   :    0;
  1D3   :   C8;
  1D4   :   C0;
  1D5   :    8;
  1D6   :   D0;
  1D7   :   F2;
  1D8   :   C9;
  1D9   :   50;
  1DA   :   60;
  1DB   :   C9;
  1DC   :   68;
  1DD   :   F0;
  1DE   :    2;
  1DF   :   A9;
  1E0   :   40;
  1E1   :   A0;
  1E2   :    7;
  1E3   :   99;
  1E4   :   4C;
  1E5   :    0;
  1E6   :   88;
  1E7   :   10;
  1E8   :   FA;
  1E9   :   60;
  1EA   :   E0;
  1EB   :    1;
  1EC   :   D0;
  1ED   :    4;
  1EE   :   A0;
  1EF   :    0;
  1F0   :   F0;
  1F1   :    A;
  1F2   :   A0;
  1F3   :    4;
  1F4   :   D0;
  1F5   :    6;
  1F6   :   A0;
  1F7   :    8;
  1F8   :   D0;
  1F9   :    2;
  1FA   :   A0;
  1FB   :    C;
  1FC   :   D9;
  1FD   :   11;
  1FE   :    3;
  1FF   :   F0;
  200   :    7;
  201   :    9;
  202   :   80;
  203   :   99;
  204   :   11;
  205   :    3;
  206   :   29;
  207   :   7F;
  208   :   60;
  209   :   20;
  20A   :   42;
  20B   :   82;
  20C   :   85;
  20D   :   B6;
  20E   :   8D;
  20F   :   15;
  210   :   40;
  211   :   8D;
  212   :   C7;
  213   :    5;
  214   :   8D;
  215   :   C8;
  216   :    5;
  217   :   A0;
  218   :   6F;
  219   :   99;
  21A   :   30;
  21B   :    4;
  21C   :   88;
  21D   :   D0;
  21E   :   FA;
  21F   :   A0;
  220   :    0;
  221   :   20;
  222   :    9;
  223   :   E2;
  224   :   C8;
  225   :   20;
  226   :    9;
  227   :   E2;
  228   :   4C;
  229   :   BF;
  22A   :   82;
  22B   :   81;
  22C   :   43;
  22D   :   F6;
  22E   :   FF;
  22F   :    2;
  230   :    0;
  231   :   A0;
  232   :   20;
  233   :   A9;
  234   :    0;
  235   :   9D;
  236   :   30;
  237   :    1;
  238   :   A5;
  239   :   81;
  23A   :   9D;
  23B   :   70;
  23C   :    1;
  23D   :   E8;
  23E   :   88;
  23F   :   D0;
  240   :   F2;
  241   :   60;
  242   :   A9;
  243   :   10;
  244   :   8D;
  245   :    0;
  246   :   20;
  247   :   85;
  248   :    0;
  249   :   A9;
  24A   :    0;
  24B   :   8D;
  24C   :    1;
  24D   :   20;
  24E   :   85;
  24F   :    1;
  250   :   60;
  251   :   D8;
  252   :   A2;
  253   :   E8;
  254   :   9A;
  255   :   20;
  256   :   42;
  257   :   82;
  258   :   A9;
  259   :   12;
  25A   :   20;
  25B   :   B5;
  25C   :   FF;
  25D   :   A9;
  25E   :    0;
  25F   :   8D;
  260   :   FF;
  261   :   FF;
  262   :   4A;
  263   :   8D;
  264   :   FF;
  265   :   FF;
  266   :   4A;
  267   :   8D;
  268   :   FF;
  269   :   FF;
  26A   :   4A;
  26B   :   8D;
  26C   :   FF;
  26D   :   FF;
  26E   :   4A;
  26F   :   8D;
  270   :   FF;
  271   :   FF;
  272   :   20;
  273   :   E1;
  274   :   D2;
  275   :   20;
  276   :   E1;
  277   :   D2;
  278   :   20;
  279   :   1D;
  27A   :   F5;
  27B   :   20;
  27C   :   B7;
  27D   :   C3;
  27E   :   20;
  27F   :   C7;
  280   :    2;
  281   :   A2;
  282   :   30;
  283   :   20;
  284   :   D7;
  285   :   C3;
  286   :   20;
  287   :   60;
  288   :   84;
  289   :   A0;
  28A   :   36;
  28B   :   20;
  28C   :    0;
  28D   :    2;
  28E   :   A9;
  28F   :   68;
  290   :   85;
  291   :   4C;
  292   :   4C;
  293   :   C2;
  294   :   85;
  295   :   20;
  296   :   42;
  297   :   82;
  298   :   A9;
  299   :   12;
  29A   :   20;
  29B   :   B5;
  29C   :   FF;
  29D   :   A2;
  29E   :    0;
  29F   :   8E;
  2A0   :    1;
  2A1   :    3;
  2A2   :   8E;
  2A3   :   15;
  2A4   :   40;
  2A5   :   E8;
  2A6   :   A0;
  2A7   :    2;
  2A8   :   8C;
  2A9   :   DF;
  2AA   :    3;
  2AB   :   86;
  2AC   :   FB;
  2AD   :   A5;
  2AE   :   B7;
  2AF   :   6A;
  2B0   :   B0;
  2B1   :    4;
  2B2   :   A2;
  2B3   :   FF;
  2B4   :   A0;
  2B5   :   FF;
  2B6   :   8C;
  2B7   :   E0;
  2B8   :    3;
  2B9   :   86;
  2BA   :   FC;
  2BB   :   A9;
  2BC   :   FF;
  2BD   :   85;
  2BE   :   AA;
  2BF   :   E6;
  2C0   :   AA;
  2C1   :   20;
  2C2   :   B7;
  2C3   :   C3;
  2C4   :   20;
  2C5   :    0;
  2C6   :    2;
  2C7   :   A0;
  2C8   :    0;
  2C9   :   8C;
  2CA   :   AF;
  2CB   :    4;
  2CC   :   8C;
  2CD   :   B0;
  2CE   :    4;
  2CF   :   20;
  2D0   :   6A;
  2D1   :   D2;
  2D2   :   A5;
  2D3   :   AA;
  2D4   :   C9;
  2D5   :    8;
  2D6   :   6A;
  2D7   :   29;
  2D8   :   80;
  2D9   :   85;
  2DA   :   FA;
  2DB   :   20;
  2DC   :   2C;
  2DD   :   C6;
  2DE   :   AD;
  2DF   :   DF;
  2E0   :    3;
  2E1   :   30;
  2E2   :    5;
  2E3   :   A9;
  2E4   :    1;
  2E5   :   8D;
  2E6   :   9B;
  2E7   :    4;
  2E8   :   AD;
  2E9   :   E0;
  2EA   :    3;
  2EB   :   30;
  2EC   :    5;
  2ED   :   A9;
  2EE   :    2;
  2EF   :   8D;
  2F0   :   9C;
  2F1   :    4;
  2F2   :   20;
  2F3   :    7;
  2F4   :   8B;
  2F5   :   20;
  2F6   :   95;
  2F7   :   9E;
  2F8   :   A0;
  2F9   :    2;
  2FA   :   20;
  2FB   :    9;
  2FC   :   E2;
  2FD   :   C8;
  2FE   :   C0;
  2FF   :   14;
  300   :   D0;
  301   :   F8;
  302   :   A9;
  303   :   12;
  304   :   20;
  305   :   B5;
  306   :   FF;
  307   :   A2;
  308   :    0;
  309   :   20;
  30A   :   32;
  30B   :   90;
  30C   :   A2;
  30D   :    1;
  30E   :   20;
  30F   :   32;
  310   :   90;
  311   :   A2;
  312   :   48;
  313   :   20;
  314   :   D7;
  315   :   C3;
  316   :   20;
  317   :    0;
  318   :    7;
  319   :   A0;
  31A   :    1;
  31B   :   20;
  31C   :   A4;
  31D   :   81;
  31E   :   A5;
  31F   :   BD;
  320   :   F0;
  321   :   3F;
  322   :   A0;
  323   :    2;
  324   :   A9;
  325   :    0;
  326   :   99;
  327   :   C7;
  328   :    5;
  329   :   20;
  32A   :   30;
  32B   :   E2;
  32C   :   B9;
  32D   :   9B;
  32E   :    4;
  32F   :   C9;
  330   :    5;
  331   :   F0;
  332   :    9;
  333   :   C9;
  334   :   23;
  335   :   F0;
  336   :   15;
  337   :   20;
  338   :    9;
  339   :   E2;
  33A   :   F0;
  33B   :   10;
  33C   :   A2;
  33D   :    0;
  33E   :   8A;
  33F   :   99;
  340   :   4F;
  341   :    5;
  342   :   B9;
  343   :   3B;
  344   :    5;
  345   :    A;
  346   :   10;
  347   :    1;
  348   :   E8;
  349   :   20;
  34A   :   A4;
  34B   :   81;
  34C   :   C8;
  34D   :   C0;
  34E   :   14;
  34F   :   D0;
  350   :   D3;
  351   :   A2;
  352   :    0;
  353   :   A9;
  354   :    2;
  355   :   20;
  356   :   86;
  357   :   95;
  358   :   E8;
  359   :   A9;
  35A   :    2;
  35B   :   20;
  35C   :   86;
  35D   :   95;
  35E   :   4C;
  35F   :   93;
  360   :   83;
  361   :   A2;
  362   :    1;
  363   :   8E;
  364   :   9F;
  365   :    5;
  366   :   A9;
  367   :   41;
  368   :   8D;
  369   :   A0;
  36A   :    5;
  36B   :   BD;
  36C   :   DF;
  36D   :    3;
  36E   :   30;
  36F   :    9;
  370   :   20;
  371   :   D2;
  372   :   D1;
  373   :   BD;
  374   :   9F;
  375   :    5;
  376   :   99;
  377   :   3B;
  378   :    5;
  379   :   CA;
  37A   :   10;
  37B   :   EF;
  37C   :   A2;
  37D   :   42;
  37E   :   20;
  37F   :   D7;
  380   :   C3;
  381   :   A4;
  382   :   AA;
  383   :   B9;
  384   :    0;
  385   :    7;
  386   :   A8;
  387   :   B9;
  388   :    0;
  389   :    7;
  38A   :   9D;
  38B   :   B0;
  38C   :    1;
  38D   :   E8;
  38E   :   C8;
  38F   :   E0;
  390   :   30;
  391   :   D0;
  392   :   F4;
  393   :   A0;
  394   :    0;
  395   :   98;
  396   :   99;
  397   :   E3;
  398   :    0;
  399   :   C8;
  39A   :   C0;
  39B   :   14;
  39C   :   D0;
  39D   :   F7;
  39E   :   A2;
  39F   :    0;
  3A0   :   AD;
  3A1   :   9B;
  3A2   :    4;
  3A3   :   D0;
  3A4   :    1;
  3A5   :   E8;
  3A6   :   20;
  3A7   :   89;
  3A8   :   86;
  3A9   :   A2;
  3AA   :    0;
  3AB   :   86;
  3AC   :   DE;
  3AD   :   20;
  3AE   :   31;
  3AF   :   82;
  3B0   :   20;
  3B1   :   31;
  3B2   :   82;
  3B3   :   20;
  3B4   :   DF;
  3B5   :   81;
  3B6   :   A2;
  3B7   :   1E;
  3B8   :   20;
  3B9   :   D7;
  3BA   :   C3;
  3BB   :   20;
  3BC   :    0;
  3BD   :    7;
  3BE   :   A5;
  3BF   :   AA;
  3C0   :   C9;
  3C1   :    A;
  3C2   :   D0;
  3C3   :    B;
  3C4   :   A2;
  3C5   :   3C;
  3C6   :   20;
  3C7   :   D7;
  3C8   :   C3;
  3C9   :   C6;
  3CA   :   6F;
  3CB   :   A9;
  3CC   :   D0;
  3CD   :   85;
  3CE   :   70;
  3CF   :   A9;
  3D0   :    1;
  3D1   :   85;
  3D2   :   A4;
  3D3   :   A5;
  3D4   :   6E;
  3D5   :   38;
  3D6   :   E9;
  3D7   :    8;
  3D8   :   85;
  3D9   :   6E;
  3DA   :   B0;
  3DB   :    2;
  3DC   :   C6;
  3DD   :   6D;
  3DE   :   20;
  3DF   :   97;
  3E0   :   A1;
  3E1   :   20;
  3E2   :   3E;
  3E3   :   AC;
  3E4   :   C6;
  3E5   :   75;
  3E6   :   D0;
  3E7   :   E7;
  3E8   :   A9;
  3E9   :   80;
  3EA   :   85;
  3EB   :   A4;
  3EC   :   A5;
  3ED   :   AA;
  3EE   :   C9;
  3EF   :    A;
  3F0   :   D0;
  3F1   :    5;
  3F2   :   A2;
  3F3   :   60;
  3F4   :   20;
  3F5   :   D7;
  3F6   :   C3;
  3F7   :   A5;
  3F8   :   BD;
  3F9   :   49;
  3FA   :   FF;
  3FB   :   D0;
  3FC   :   22;
  3FD   :   85;
  3FE   :   BD;
  3FF   :   A5;
  400   :   AA;
  401   :   49;
  402   :    7;
  403   :   D0;
  404   :   11;
  405   :   A0;
  406   :    0;
  407   :   20;
  408   :   9D;
  409   :   B7;
  40A   :   A0;
  40B   :    1;
  40C   :   20;
  40D   :   9D;
  40E   :   B7;
  40F   :   A2;
  410   :    0;
  411   :   20;
  412   :   69;
  413   :   B8;
  414   :   D0;
  415   :   20;
  416   :   A6;
  417   :   B9;
  418   :   A9;
  419   :    0;
  41A   :   20;
  41B   :   80;
  41C   :   C4;
  41D   :   A9;
  41E   :   FF;
  41F   :   49;
  420   :   FF;
  421   :   F0;
  422   :   13;
  423   :   A9;
  424   :   E0;
  425   :   85;
  426   :   6E;
  427   :   A9;
  428   :    7;
  429   :   85;
  42A   :   C7;
  42B   :   A2;
  42C   :    0;
  42D   :   BD;
  42E   :    0;
  42F   :    2;
  430   :   9D;
  431   :    0;
  432   :    7;
  433   :   E8;
  434   :   D0;
  435   :   F7;
  436   :   A2;
  437   :    0;
  438   :   A0;
  439   :   10;
  43A   :   20;
  43B   :   AB;
  43C   :   C3;
  43D   :   A2;
  43E   :   12;
  43F   :   20;
  440   :   B1;
  441   :   C3;
  442   :   A4;
  443   :   AA;
  444   :   C0;
  445   :    4;
  446   :   A9;
  447   :    1;
  448   :   90;
  449   :    8;
  44A   :   A9;
  44B   :    4;
  44C   :   C0;
  44D   :    8;
  44E   :   90;
  44F   :    2;
  450   :   A9;
  451   :    5;
  452   :   85;
  453   :   E2;
  454   :   A2;
  455   :    F;
  456   :   A0;
  457   :   8C;
  458   :   4C;
  459   :   28;
  45A   :   81;
  45B   :   A2;
  45C   :   24;
  45D   :   4C;
  45E   :   D7;
  45F   :   C3;
  460   :   A9;
  461   :    8;
  462   :   20;
  463   :   2A;
  464   :   D6;
  465   :   20;
  466   :   5B;
  467   :   84;
  468   :   A9;
  469   :   13;
  46A   :   20;
  46B   :   B5;
  46C   :   FF;
  46D   :   20;
  46E   :   42;
  46F   :   82;
  470   :   20;
  471   :   23;
  472   :   F5;
  473   :   A2;
  474   :   20;
  475   :   20;
  476   :   A9;
  477   :   C3;
  478   :   20;
  479   :   BB;
  47A   :   C3;
  47B   :   A9;
  47C   :    7;
  47D   :   4C;
  47E   :   C9;
  47F   :   FF;
  480   :   A9;
  481   :    0;
  482   :   8D;
  483   :    5;
  484   :   20;
  485   :   A5;
  486   :   73;
  487   :   20;
  488   :   C0;
  489   :   D2;
  48A   :   A9;
  48B   :    7;
  48C   :   20;
  48D   :   C9;
  48E   :   FF;
  48F   :   A9;
  490   :    7;
  491   :   20;
  492   :   DD;
  493   :   FF;
  494   :   20;
  495   :   79;
  496   :   D2;
  497   :   A2;
  498   :   32;
  499   :   A0;
  49A   :    7;
  49B   :   60;
  49C   :   20;
  49D   :   60;
  49E   :   84;
  49F   :   20;
  4A0   :   A7;
  4A1   :   C3;
  4A2   :   20;
  4A3   :   BB;
  4A4   :   C3;
  4A5   :   CA;
  4A6   :   A0;
  4A7   :    3;
  4A8   :   20;
  4A9   :   27;
  4AA   :   F5;
  4AB   :   A9;
  4AC   :   68;
  4AD   :   20;
  4AE   :   DB;
  4AF   :   C7;
  4B0   :   A2;
  4B1   :   2A;
  4B2   :   20;
  4B3   :   D7;
  4B4   :   C3;
  4B5   :   20;
  4B6   :    0;
  4B7   :    6;
  4B8   :   A2;
  4B9   :   36;
  4BA   :   20;
  4BB   :   D7;
  4BC   :   C3;
  4BD   :   86;
  4BE   :   73;
  4BF   :   20;
  4C0   :   5B;
  4C1   :   84;
  4C2   :   20;
  4C3   :   6C;
  4C4   :   81;
  4C5   :   A2;
  4C6   :   CC;
  4C7   :   A0;
  4C8   :   84;
  4C9   :   4C;
  4CA   :   28;
  4CB   :   81;
  4CC   :   20;
  4CD   :   4A;
  4CE   :   D5;
  4CF   :   A2;
  4D0   :    5;
  4D1   :   20;
  4D2   :   F7;
  4D3   :   80;
  4D4   :   A9;
  4D5   :   92;
  4D6   :   8D;
  4D7   :    0;
  4D8   :   20;
  4D9   :   20;
  4DA   :   80;
  4DB   :   84;
  4DC   :   20;
  4DD   :   AE;
  4DE   :   FF;
  4DF   :   A9;
  4E0   :   18;
  4E1   :   8D;
  4E2   :    1;
  4E3   :   20;
  4E4   :   A5;
  4E5   :   8C;
  4E6   :   C9;
  4E7   :   FF;
  4E8   :   D0;
  4E9   :   14;
  4EA   :   A9;
  4EB   :   F0;
  4EC   :   E5;
  4ED   :   73;
  4EE   :   30;
  4EF   :    E;
  4F0   :   AA;
  4F1   :   A0;
  4F2   :   19;
  4F3   :   88;
  4F4   :   D0;
  4F5   :   FD;
  4F6   :   CA;
  4F7   :   D0;
  4F8   :   F8;
  4F9   :   A9;
  4FA   :    5;
  4FB   :   20;
  4FC   :   DD;
  4FD   :   FF;
  4FE   :   20;
  4FF   :   9A;
  500   :   D6;
  501   :   A5;
  502   :   8C;
  503   :   30;
  504   :   18;
  505   :   C9;
  506   :    6;
  507   :   F0;
  508   :   3D;
  509   :   C9;
  50A   :    1;
  50B   :   F0;
  50C   :   10;
  50D   :   A5;
  50E   :   18;
  50F   :    5;
  510   :   19;
  511   :   25;
  512   :   FF;
  513   :   F0;
  514   :    8;
  515   :   A9;
  516   :   FB;
  517   :   85;
  518   :    3;
  519   :   A9;
  51A   :    0;
  51B   :   85;
  51C   :   8C;
  51D   :   A5;
  51E   :    3;
  51F   :   D0;
  520   :   25;
  521   :   A5;
  522   :   8C;
  523   :   C9;
  524   :   FF;
  525   :   D0;
  526   :   14;
  527   :   AD;
  528   :    1;
  529   :    3;
  52A   :   D0;
  52B   :   1A;
  52C   :   20;
  52D   :   95;
  52E   :   9E;
  52F   :   E9;
  530   :    1;
  531   :   85;
  532   :   AA;
  533   :   A0;
  534   :    A;
  535   :   20;
  536   :   6A;
  537   :   D2;
  538   :   4C;
  539   :   BF;
  53A   :   C3;
  53B   :   A9;
  53C   :    0;
  53D   :   85;
  53E   :   4C;
  53F   :   A9;
  540   :   EF;
  541   :   85;
  542   :   73;
  543   :   4C;
  544   :   B2;
  545   :   85;
  546   :   A5;
  547   :   73;
  548   :   D0;
  549   :    A;
  54A   :   A5;
  54B   :    2;
  54C   :   C9;
  54D   :   C0;
  54E   :   D0;
  54F   :    A;
  550   :   A9;
  551   :   20;
  552   :   85;
  553   :    3;
  554   :   C9;
  555   :   EF;
  556   :   F0;
  557   :    2;
  558   :   E6;
  559   :   73;
  55A   :   A2;
  55B   :    0;
  55C   :   20;
  55D   :    0;
  55E   :    7;
  55F   :   A5;
  560   :    3;
  561   :   C9;
  562   :   FB;
  563   :   90;
  564   :    D;
  565   :   A5;
  566   :   8C;
  567   :   30;
  568   :   46;
  569   :   20;
  56A   :   C3;
  56B   :   81;
  56C   :   A9;
  56D   :    0;
  56E   :   85;
  56F   :   4D;
  570   :   F0;
  571   :   3D;
  572   :   C9;
  573   :   1C;
  574   :   90;
  575   :    6;
  576   :   A5;
  577   :   8C;
  578   :   C9;
  579   :    6;
  57A   :   F0;
  57B   :   22;
  57C   :   A9;
  57D   :    3;
  57E   :   20;
  57F   :   50;
  580   :   81;
  581   :   A5;
  582   :   8C;
  583   :   C9;
  584   :    1;
  585   :   D0;
  586   :   28;
  587   :   A5;
  588   :   18;
  589   :    5;
  58A   :   19;
  58B   :   29;
  58C   :   2C;
  58D   :   F0;
  58E   :    4;
  58F   :   85;
  590   :    3;
  591   :   E6;
  592   :   B7;
  593   :   A5;
  594   :   18;
  595   :    5;
  596   :   19;
  597   :   29;
  598   :   10;
  599   :   F0;
  59A   :   14;
  59B   :   4C;
  59C   :   95;
  59D   :   82;
  59E   :   AD;
  59F   :   A4;
  5A0   :    3;
  5A1   :   F0;
  5A2   :    4;
  5A3   :   A5;
  5A4   :   DF;
  5A5   :   D0;
  5A6   :    8;
  5A7   :   20;
  5A8   :   C3;
  5A9   :   81;
  5AA   :   D0;
  5AB   :    3;
  5AC   :   4C;
  5AD   :   BF;
  5AE   :   C5;
  5AF   :   4C;
  5B0   :   42;
  5B1   :   81;
  5B2   :   E6;
  5B3   :   8C;
  5B4   :   A5;
  5B5   :   8C;
  5B6   :   C9;
  5B7   :    3;
  5B8   :   D0;
  5B9   :    2;
  5BA   :   A9;
  5BB   :    0;
  5BC   :   85;
  5BD   :   8C;
  5BE   :   A9;
  5BF   :   FF;
  5C0   :   85;
  5C1   :   FF;
  5C2   :   A5;
  5C3   :   4C;
  5C4   :   20;
  5C5   :   DB;
  5C6   :   81;
  5C7   :   20;
  5C8   :   B7;
  5C9   :   C3;
  5CA   :   20;
  5CB   :   77;
  5CC   :    2;
  5CD   :   30;
  5CE   :   2E;
  5CF   :   F0;
  5D0   :   34;
  5D1   :   A2;
  5D2   :   20;
  5D3   :   86;
  5D4   :   90;
  5D5   :   A2;
  5D6   :    C;
  5D7   :   20;
  5D8   :   D7;
  5D9   :   C3;
  5DA   :   A6;
  5DB   :   90;
  5DC   :   BD;
  5DD   :   30;
  5DE   :    2;
  5DF   :   99;
  5E0   :   29;
  5E1   :    0;
  5E2   :   E8;
  5E3   :   C8;
  5E4   :   C0;
  5E5   :   10;
  5E6   :   D0;
  5E7   :   F4;
  5E8   :   A9;
  5E9   :    0;
  5EA   :   85;
  5EB   :    2;
  5EC   :   85;
  5ED   :    3;
  5EE   :   AA;
  5EF   :   9D;
  5F0   :   30;
  5F1   :    1;
  5F2   :   E8;
  5F3   :   E0;
  5F4   :   5A;
  5F5   :   D0;
  5F6   :   F8;
  5F7   :   20;
  5F8   :   9A;
  5F9   :   D6;
  5FA   :   4C;
  5FB   :   C2;
  5FC   :   84;
  5FD   :   A2;
  5FE   :    0;
  5FF   :   20;
  600   :   DB;
  601   :   80;
  602   :   4C;
  603   :   D1;
  604   :   85;
  605   :   20;
  606   :   BB;
  607   :   C3;
  608   :   A9;
  609   :    7;
  60A   :   20;
  60B   :   C9;
  60C   :   FF;
  60D   :   A9;
  60E   :    3;
  60F   :   85;
  610   :   5A;
  611   :   20;
  612   :   29;
  613   :   86;
  614   :   A9;
  615   :   9E;
  616   :   85;
  617   :   4F;
  618   :   A9;
  619   :   76;
  61A   :   85;
  61B   :   4E;
  61C   :   A9;
  61D   :   5C;
  61E   :   85;
  61F   :   4C;
  620   :   A2;
  621   :    C;
  622   :   20;
  623   :   DB;
  624   :   80;
  625   :   A2;
  626   :   30;
  627   :   D0;
  628   :   AA;
  629   :   A2;
  62A   :   A6;
  62B   :   A0;
  62C   :   E3;
  62D   :   20;
  62E   :   B6;
  62F   :   80;
  630   :   A0;
  631   :    4;
  632   :   A5;
  633   :   5A;
  634   :   F0;
  635   :   10;
  636   :   20;
  637   :    9;
  638   :   E2;
  639   :   99;
  63A   :   27;
  63B   :    5;
  63C   :   A9;
  63D   :    4;
  63E   :   99;
  63F   :   C7;
  640   :    5;
  641   :   99;
  642   :   9B;
  643   :    4;
  644   :   A9;
  645   :    0;
  646   :   C0;
  647   :    4;
  648   :   F0;
  649   :    2;
  64A   :   A9;
  64B   :   FF;
  64C   :   99;
  64D   :   B7;
  64E   :    3;
  64F   :   A9;
  650   :   95;
  651   :   99;
  652   :   CB;
  653   :    3;
  654   :   C8;
  655   :   C0;
  656   :    6;
  657   :   D0;
  658   :   D9;
  659   :   A0;
  65A   :   8E;
  65B   :   20;
  65C   :    0;
  65D   :    2;
  65E   :   A0;
  65F   :   B6;
  660   :   20;
  661   :    0;
  662   :    2;
  663   :   4C;
  664   :   6C;
  665   :   81;
  666   :   A9;
  667   :    0;
  668   :   85;
  669   :    6;
  66A   :   85;
  66B   :    7;
  66C   :   60;
  66D   :   BD;
  66E   :   C3;
  66F   :    4;
  670   :   85;
  671   :    4;
  672   :   BD;
  673   :   D7;
  674   :    4;
  675   :   20;
  676   :   B7;
  677   :   9F;
  678   :   85;
  679   :   77;
  67A   :   A8;
  67B   :   BD;
  67C   :   EB;
  67D   :    4;
  67E   :   85;
  67F   :    4;
  680   :   BD;
  681   :   FF;
  682   :    4;
  683   :   20;
  684   :   B7;
  685   :   9F;
  686   :   85;
  687   :   78;
  688   :   60;
  689   :   20;
  68A   :   6D;
  68B   :   86;
  68C   :   C5;
  68D   :   BB;
  68E   :   B0;
  68F   :   D6;
  690   :   C4;
  691   :   BB;
  692   :   B0;
  693   :   D2;
  694   :   20;
  695   :   72;
  696   :   9F;
  697   :   4C;
  698   :   4E;
  699   :   8A;
  69A   :    0;
  69B   :   40;
  69C   :    1;
  69D   :   40;
  69E   :   3F;
  69F   :    0;
  6A0   :   A9;
  6A1   :   3D;
  6A2   :   85;
  6A3   :   E0;
  6A4   :   20;
  6A5   :   FA;
  6A6   :   81;
  6A7   :   4C;
  6A8   :   69;
  6A9   :   B8;
  6AA   :   4C;
  6AB   :   30;
  6AC   :   87;
  6AD   :   20;
  6AE   :   6D;
  6AF   :   86;
  6B0   :   20;
  6B1   :   72;
  6B2   :   9F;
  6B3   :   4C;
  6B4   :   4E;
  6B5   :   8A;
  6B6   :   A9;
  6B7   :    0;
  6B8   :   85;
  6B9   :   81;
  6BA   :   85;
  6BB   :   C9;
  6BC   :   85;
  6BD   :   BE;
  6BE   :   85;
  6BF   :   BF;
  6C0   :   85;
  6C1   :   C0;
  6C2   :   85;
  6C3   :   8D;
  6C4   :   20;
  6C5   :   89;
  6C6   :   86;
  6C7   :   F0;
  6C8   :   E1;
  6C9   :   A5;
  6CA   :   B8;
  6CB   :   F0;
  6CC   :   15;
  6CD   :   A9;
  6CE   :    0;
  6CF   :   4C;
  6D0   :   C2;
  6D1   :   88;
  6D2   :   85;
  6D3   :    7;
  6D4   :   85;
  6D5   :    6;
  6D6   :   85;
  6D7   :   81;
  6D8   :   85;
  6D9   :   BF;
  6DA   :   85;
  6DB   :   C0;
  6DC   :   20;
  6DD   :   6D;
  6DE   :   86;
  6DF   :   4C;
  6E0   :   E1;
  6E1   :   87;
  6E2   :   BD;
  6E3   :   D7;
  6E4   :    4;
  6E5   :   45;
  6E6   :   87;
  6E7   :   29;
  6E8   :   10;
  6E9   :   F0;
  6EA   :   1F;
  6EB   :   A9;
  6EC   :    2;
  6ED   :   85;
  6EE   :   C9;
  6EF   :   BD;
  6F0   :   D7;
  6F1   :    4;
  6F2   :   BC;
  6F3   :   C3;
  6F4   :    4;
  6F5   :   20;
  6F6   :   E3;
  6F7   :   89;
  6F8   :   9D;
  6F9   :   D7;
  6FA   :    4;
  6FB   :   98;
  6FC   :   9D;
  6FD   :   C3;
  6FE   :    4;
  6FF   :   49;
  700   :    4;
  701   :   F0;
  702   :   CF;
  703   :   49;
  704   :   FB;
  705   :   F0;
  706   :   CB;
  707   :   20;
  708   :   AD;
  709   :   86;
  70A   :   BD;
  70B   :   FF;
  70C   :    4;
  70D   :   45;
  70E   :   89;
  70F   :   29;
  710   :   10;
  711   :   F0;
  712   :   1D;
  713   :   E6;
  714   :   C9;
  715   :   BD;
  716   :   FF;
  717   :    4;
  718   :   BC;
  719   :   EB;
  71A   :    4;
  71B   :   20;
  71C   :   E3;
  71D   :   89;
  71E   :   9D;
  71F   :   FF;
  720   :    4;
  721   :   98;
  722   :   9D;
  723   :   EB;
  724   :    4;
  725   :   49;
  726   :   FF;
  727   :   F0;
  728   :   A9;
  729   :   49;
  72A   :   FB;
  72B   :   F0;
  72C   :   A5;
  72D   :   20;
  72E   :   AD;
  72F   :   86;
  730   :   A5;
  731   :   AA;
  732   :   C9;
  733   :    5;
  734   :   B0;
  735   :   3D;
  736   :   A5;
  737   :   BD;
  738   :   D0;
  739   :   39;
  73A   :   BC;
  73B   :   9B;
  73C   :    4;
  73D   :   B9;
  73E   :   8E;
  73F   :   8B;
  740   :   29;
  741   :   20;
  742   :   F0;
  743   :   2F;
  744   :   A9;
  745   :   3F;
  746   :   C5;
  747   :   77;
  748   :   90;
  749   :   29;
  74A   :   C5;
  74B   :   78;
  74C   :   90;
  74D   :   25;
  74E   :   86;
  74F   :   8F;
  750   :   BD;
  751   :   D7;
  752   :    4;
  753   :   29;
  754   :    F;
  755   :   85;
  756   :    4;
  757   :   BD;
  758   :   FF;
  759   :    4;
  75A   :   29;
  75B   :    F;
  75C   :   18;
  75D   :   65;
  75E   :    4;
  75F   :   C9;
  760   :    F;
  761   :   F0;
  762   :   7A;
  763   :   85;
  764   :   58;
  765   :   C9;
  766   :   10;
  767   :   A2;
  768   :    0;
  769   :   B0;
  76A   :    B;
  76B   :   A5;
  76C   :   78;
  76D   :   F0;
  76E   :   6C;
  76F   :   A2;
  770   :    3;
  771   :   D0;
  772   :    9;
  773   :   4C;
  774   :   DD;
  775   :   87;
  776   :   A5;
  777   :   77;
  778   :   C5;
  779   :   BC;
  77A   :   F0;
  77B   :   5F;
  77C   :   A5;
  77D   :    8;
  77E   :   38;
  77F   :   FD;
  780   :   9A;
  781   :   86;
  782   :   85;
  783   :    A;
  784   :   A5;
  785   :    9;
  786   :   E9;
  787   :    0;
  788   :   85;
  789   :    B;
  78A   :   BC;
  78B   :   9B;
  78C   :   86;
  78D   :   B1;
  78E   :    A;
  78F   :   F0;
  790   :   4A;
  791   :   A0;
  792   :    0;
  793   :   B1;
  794   :    8;
  795   :   A8;
  796   :   B9;
  797   :   69;
  798   :   D0;
  799   :   85;
  79A   :    4;
  79B   :   BC;
  79C   :   9C;
  79D   :   86;
  79E   :   B1;
  79F   :    A;
  7A0   :   AA;
  7A1   :   A5;
  7A2   :    4;
  7A3   :   DD;
  7A4   :   69;
  7A5   :   D0;
  7A6   :   B0;
  7A7   :   33;
  7A8   :   98;
  7A9   :   65;
  7AA   :    A;
  7AB   :   85;
  7AC   :    8;
  7AD   :   A9;
  7AE   :    0;
  7AF   :   65;
  7B0   :    B;
  7B1   :   85;
  7B2   :    9;
  7B3   :   A6;
  7B4   :   8F;
  7B5   :   20;
  7B6   :   4E;
  7B7   :   8A;
  7B8   :   F0;
  7B9   :   23;
  7BA   :   A4;
  7BB   :   8F;
  7BC   :   A9;
  7BD   :   10;
  7BE   :   38;
  7BF   :   E5;
  7C0   :   58;
  7C1   :   C9;
  7C2   :   80;
  7C3   :   6A;
  7C4   :   85;
  7C5   :    6;
  7C6   :   20;
  7C7   :   25;
  7C8   :   D5;
  7C9   :   A5;
  7CA   :    6;
  7CB   :   20;
  7CC   :   FF;
  7CD   :   D4;
  7CE   :   A9;
  7CF   :    0;
  7D0   :   9D;
  7D1   :   3B;
  7D2   :    5;
  7D3   :   9D;
  7D4   :   4F;
  7D5   :    5;
  7D6   :   E6;
  7D7   :   C9;
  7D8   :   20;
  7D9   :   AD;
  7DA   :   86;
  7DB   :   A6;
  7DC   :   8F;
  7DD   :   A5;
  7DE   :   BE;
  7DF   :   85;
  7E0   :   BF;
  7E1   :   BD;
  7E2   :   27;
  7E3   :    5;
  7E4   :   38;
  7E5   :   E5;
  7E6   :    7;
  7E7   :   85;
  7E8   :    4;
  7E9   :   BD;
  7EA   :   13;
  7EB   :    5;
  7EC   :   E5;
  7ED   :    6;
  7EE   :   F0;
  7EF   :    4;
  7F0   :   A9;
  7F1   :   F0;
  7F2   :   D0;
  7F3   :    6;
  7F4   :   A5;
  7F5   :    4;
  7F6   :   C9;
  7F7   :    C;
  7F8   :   90;
  7F9   :    3;
  7FA   :   4C;
  7FB   :   C2;
  7FC   :   88;
  7FD   :   9D;
  7FE   :   77;
  7FF   :    5;
  800   :   A5;
  801   :   C0;
  802   :   E0;
  803   :    2;
  804   :   B0;
  805   :   5F;
  806   :   C9;
  807   :    9;
  808   :   F0;
  809   :   5E;
  80A   :   C9;
  80B   :    B;
  80C   :   F0;
  80D   :   5A;
  80E   :   C9;
  80F   :    A;
  810   :   F0;
  811   :    3;
  812   :   4C;
  813   :   A6;
  814   :   88;
  815   :   A5;
  816   :    4;
  817   :   C9;
  818   :    4;
  819   :   B0;
  81A   :   DF;
  81B   :   A5;
  81C   :    2;
  81D   :   29;
  81E   :    F;
  81F   :   D0;
  820   :    3;
  821   :   20;
  822   :   69;
  823   :   B8;
  824   :   A5;
  825   :   AA;
  826   :   C9;
  827   :    7;
  828   :   D0;
  829   :   3E;
  82A   :   A5;
  82B   :   77;
  82C   :   C9;
  82D   :   1E;
  82E   :   90;
  82F   :   10;
  830   :   A0;
  831   :    1;
  832   :   A5;
  833   :   78;
  834   :   C9;
  835   :   32;
  836   :   B0;
  837   :   18;
  838   :   C8;
  839   :   C9;
  83A   :   26;
  83B   :   B0;
  83C   :   13;
  83D   :   C8;
  83E   :   D0;
  83F   :   10;
  840   :   A0;
  841   :    5;
  842   :   C9;
  843   :    7;
  844   :   90;
  845   :   22;
  846   :   C9;
  847   :    F;
  848   :   90;
  849   :    6;
  84A   :   88;
  84B   :   C9;
  84C   :   16;
  84D   :   90;
  84E   :    1;
  84F   :   88;
  850   :   C4;
  851   :   C6;
  852   :   F0;
  853   :   71;
  854   :   90;
  855   :   6F;
  856   :   E6;
  857   :   C6;
  858   :   A4;
  859   :   56;
  85A   :   20;
  85B   :   D7;
  85C   :   B3;
  85D   :   A6;
  85E   :   56;
  85F   :   20;
  860   :   A0;
  861   :   86;
  862   :   FE;
  863   :   8D;
  864   :    4;
  865   :   4C;
  866   :   C5;
  867   :   88;
  868   :   BD;
  869   :    1;
  86A   :    4;
  86B   :   D0;
  86C   :   36;
  86D   :   E8;
  86E   :   E8;
  86F   :   E8;
  870   :   E8;
  871   :   A5;
  872   :   AA;
  873   :   29;
  874   :   FE;
  875   :    A;
  876   :   69;
  877   :   10;
  878   :   A8;
  879   :   20;
  87A   :   42;
  87B   :   E0;
  87C   :   A6;
  87D   :   56;
  87E   :   A5;
  87F   :   AA;
  880   :   C9;
  881   :    8;
  882   :   90;
  883   :    8;
  884   :   A5;
  885   :   C0;
  886   :   C9;
  887   :    B;
  888   :   F0;
  889   :   16;
  88A   :   D0;
  88B   :   12;
  88C   :   C9;
  88D   :    5;
  88E   :   D0;
  88F   :    6;
  890   :   A5;
  891   :   77;
  892   :   C9;
  893   :    3;
  894   :   90;
  895   :    A;
  896   :   A5;
  897   :   78;
  898   :   45;
  899   :   BC;
  89A   :   C5;
  89B   :   77;
  89C   :   90;
  89D   :    2;
  89E   :   C8;
  89F   :   C8;
  8A0   :   20;
  8A1   :   42;
  8A2   :   E0;
  8A3   :   4C;
  8A4   :   C5;
  8A5   :   88;
  8A6   :   29;
  8A7   :   FE;
  8A8   :   C9;
  8A9   :    6;
  8AA   :   D0;
  8AB   :   19;
  8AC   :   BD;
  8AD   :   77;
  8AE   :    5;
  8AF   :   D0;
  8B0   :   14;
  8B1   :   E0;
  8B2   :    2;
  8B3   :   B0;
  8B4   :   10;
  8B5   :   BD;
  8B6   :   C7;
  8B7   :    5;
  8B8   :   10;
  8B9   :    B;
  8BA   :   20;
  8BB   :   45;
  8BC   :   9D;
  8BD   :   FE;
  8BE   :   27;
  8BF   :    5;
  8C0   :   A9;
  8C1   :    1;
  8C2   :   9D;
  8C3   :   77;
  8C4   :    5;
  8C5   :   BD;
  8C6   :   9B;
  8C7   :    4;
  8C8   :   C9;
  8C9   :    5;
  8CA   :   D0;
  8CB   :    3;
  8CC   :   4C;
  8CD   :   6B;
  8CE   :   89;
  8CF   :   A5;
  8D0   :   BF;
  8D1   :   D0;
  8D2   :   66;
  8D3   :   A5;
  8D4   :   BD;
  8D5   :   30;
  8D6   :   62;
  8D7   :   BD;
  8D8   :   D7;
  8D9   :    4;
  8DA   :   49;
  8DB   :    F;
  8DC   :   29;
  8DD   :    F;
  8DE   :   85;
  8DF   :   71;
  8E0   :   BD;
  8E1   :   FF;
  8E2   :    4;
  8E3   :   29;
  8E4   :    F;
  8E5   :   85;
  8E6   :   72;
  8E7   :   A0;
  8E8   :    0;
  8E9   :   BD;
  8EA   :   D7;
  8EB   :    4;
  8EC   :   29;
  8ED   :    F;
  8EE   :   65;
  8EF   :   72;
  8F0   :   A0;
  8F1   :    2;
  8F2   :   C9;
  8F3   :    8;
  8F4   :   90;
  8F5   :    6;
  8F6   :   88;
  8F7   :   C9;
  8F8   :   1C;
  8F9   :   B0;
  8FA   :    1;
  8FB   :   88;
  8FC   :   84;
  8FD   :   7A;
  8FE   :   A9;
  8FF   :    A;
  900   :   85;
  901   :    4;
  902   :   A5;
  903   :   77;
  904   :   30;
  905   :   5D;
  906   :   C5;
  907   :   BB;
  908   :   B0;
  909   :   61;
  90A   :   A5;
  90B   :   78;
  90C   :   30;
  90D   :   5D;
  90E   :   C5;
  90F   :   BB;
  910   :   B0;
  911   :   51;
  912   :   A5;
  913   :   AA;
  914   :   C9;
  915   :    4;
  916   :   90;
  917   :    5;
  918   :   A0;
  919   :    0;
  91A   :   4C;
  91B   :   93;
  91C   :   89;
  91D   :   A5;
  91E   :   77;
  91F   :   30;
  920   :   38;
  921   :   C5;
  922   :   BB;
  923   :   B0;
  924   :   46;
  925   :   A5;
  926   :   78;
  927   :   30;
  928   :   28;
  929   :   C5;
  92A   :   BB;
  92B   :   B0;
  92C   :   2C;
  92D   :   A4;
  92E   :    7;
  92F   :   F0;
  930   :    B;
  931   :   C6;
  932   :    7;
  933   :   20;
  934   :   72;
  935   :   9F;
  936   :   88;
  937   :   F0;
  938   :    3;
  939   :   4C;
  93A   :   6B;
  93B   :   89;
  93C   :   B1;
  93D   :    8;
  93E   :   F0;
  93F   :   19;
  940   :   84;
  941   :    6;
  942   :   20;
  943   :   3B;
  944   :   8A;
  945   :   69;
  946   :   14;
  947   :   C5;
  948   :   71;
  949   :   90;
  94A   :    6;
  94B   :   85;
  94C   :    4;
  94D   :   E5;
  94E   :   72;
  94F   :   B0;
  950   :   1E;
  951   :   A9;
  952   :    2;
  953   :   C5;
  954   :    4;
  955   :   B0;
  956   :    2;
  957   :   85;
  958   :    4;
  959   :   C6;
  95A   :    4;
  95B   :   F0;
  95C   :    E;
  95D   :   20;
  95E   :   9A;
  95F   :   89;
  960   :   4C;
  961   :   1D;
  962   :   89;
  963   :   A9;
  964   :   FF;
  965   :   85;
  966   :   C1;
  967   :   A0;
  968   :   28;
  969   :   D0;
  96A   :   28;
  96B   :   A4;
  96C   :   82;
  96D   :   F0;
  96E   :   15;
  96F   :   A0;
  970   :   28;
  971   :   85;
  972   :   C1;
  973   :   A5;
  974   :    4;
  975   :   FD;
  976   :   77;
  977   :    5;
  978   :   90;
  979   :    8;
  97A   :   C5;
  97B   :   71;
  97C   :   90;
  97D   :    4;
  97E   :   C5;
  97F   :   72;
  980   :   B0;
  981   :    2;
  982   :   A0;
  983   :    8;
  984   :   E0;
  985   :    2;
  986   :   B0;
  987   :    B;
  988   :   A5;
  989   :    4;
  98A   :   38;
  98B   :   E5;
  98C   :   71;
  98D   :   C5;
  98E   :   C1;
  98F   :   B0;
  990   :    2;
  991   :   85;
  992   :   C1;
  993   :   84;
  994   :    4;
  995   :   A9;
  996   :   D7;
  997   :   4C;
  998   :   DA;
  999   :   89;
  99A   :   E6;
  99B   :   7A;
  99C   :   A5;
  99D   :   7A;
  99E   :   C9;
  99F   :    2;
  9A0   :   F0;
  9A1   :   1B;
  9A2   :   49;
  9A3   :    3;
  9A4   :   D0;
  9A5   :    2;
  9A6   :   85;
  9A7   :   7A;
  9A8   :   A5;
  9A9   :   72;
  9AA   :   18;
  9AB   :   69;
  9AC   :   10;
  9AD   :   85;
  9AE   :   72;
  9AF   :   C6;
  9B0   :   78;
  9B1   :   A5;
  9B2   :    8;
  9B3   :   38;
  9B4   :   E5;
  9B5   :   BB;
  9B6   :   85;
  9B7   :    8;
  9B8   :   B0;
  9B9   :    2;
  9BA   :   C6;
  9BB   :    9;
  9BC   :   60;
  9BD   :   A5;
  9BE   :   72;
  9BF   :   E9;
  9C0   :   10;
  9C1   :   85;
  9C2   :   72;
  9C3   :   E6;
  9C4   :   78;
  9C5   :   E6;
  9C6   :   77;
  9C7   :   A5;
  9C8   :   71;
  9C9   :   18;
  9CA   :   69;
  9CB   :   10;
  9CC   :   85;
  9CD   :   71;
  9CE   :   A5;
  9CF   :   BB;
  9D0   :   38;
  9D1   :   65;
  9D2   :    8;
  9D3   :   85;
  9D4   :    8;
  9D5   :   90;
  9D6   :   E5;
  9D7   :   E6;
  9D8   :    9;
  9D9   :   60;
  9DA   :   3D;
  9DB   :   B3;
  9DC   :    5;
  9DD   :    5;
  9DE   :    4;
  9DF   :   9D;
  9E0   :   B3;
  9E1   :    5;
  9E2   :   60;
  9E3   :   85;
  9E4   :    4;
  9E5   :   29;
  9E6   :    F;
  9E7   :   C9;
  9E8   :    8;
  9E9   :   A5;
  9EA   :    4;
  9EB   :   B0;
  9EC   :    8;
  9ED   :   E9;
  9EE   :    A;
  9EF   :    9;
  9F0   :    F;
  9F1   :   B0;
  9F2   :    9;
  9F3   :   88;
  9F4   :   60;
  9F5   :   69;
  9F6   :    B;
  9F7   :   29;
  9F8   :   F0;
  9F9   :   90;
  9FA   :    1;
  9FB   :   C8;
  9FC   :   60;
  9FD   :   A9;
  9FE   :    0;
  9FF   :   60;
  A00   :   A0;
  A01   :    0;
  A02   :   84;
  A03   :    6;
  A04   :   84;
  A05   :   C0;
  A06   :   B1;
  A07   :    8;
  A08   :   85;
  A09   :   BE;
  A0A   :   85;
  A0B   :   8D;
  A0C   :   85;
  A0D   :   81;
  A0E   :   D0;
  A0F   :    A;
  A10   :   A5;
  A11   :   AA;
  A12   :   C9;
  A13   :    7;
  A14   :   D0;
  A15   :   E7;
  A16   :   A9;
  A17   :   10;
  A18   :   D0;
  A19   :   EE;
  A1A   :   85;
  A1B   :   81;
  A1C   :   85;
  A1D   :   BE;
  A1E   :   4A;
  A1F   :    5;
  A20   :   FA;
  A21   :   A8;
  A22   :   B9;
  A23   :   6A;
  A24   :   CF;
  A25   :   90;
  A26   :    4;
  A27   :   4A;
  A28   :   4A;
  A29   :   4A;
  A2A   :   4A;
  A2B   :   29;
  A2C   :    F;
  A2D   :   85;
  A2E   :   C0;
  A2F   :   A4;
  A30   :   BE;
  A31   :   C9;
  A32   :    8;
  A33   :   D0;
  A34   :    7;
  A35   :   A0;
  A36   :    1;
  A37   :   B1;
  A38   :    8;
  A39   :   85;
  A3A   :   81;
  A3B   :   A8;
  A3C   :   B9;
  A3D   :   69;
  A3E   :   D0;
  A3F   :   85;
  A40   :   BE;
  A41   :    A;
  A42   :   26;
  A43   :    6;
  A44   :    A;
  A45   :   26;
  A46   :    6;
  A47   :    A;
  A48   :   26;
  A49   :    6;
  A4A   :    A;
  A4B   :   26;
  A4C   :    6;
  A4D   :   60;
  A4E   :   20;
  A4F   :    0;
  A50   :   8A;
  A51   :   85;
  A52   :    7;
  A53   :   A5;
  A54   :   C0;
  A55   :   C9;
  A56   :    B;
  A57   :   D0;
  A58   :    6;
  A59   :   BD;
  A5A   :   D7;
  A5B   :    4;
  A5C   :   4C;
  A5D   :   6D;
  A5E   :   8A;
  A5F   :   C9;
  A60   :    9;
  A61   :   D0;
  A62   :   19;
  A63   :   98;
  A64   :   45;
  A65   :   BB;
  A66   :   F0;
  A67   :   26;
  A68   :   BD;
  A69   :   FF;
  A6A   :    4;
  A6B   :   49;
  A6C   :    F;
  A6D   :   29;
  A6E   :    F;
  A6F   :   85;
  A70   :    4;
  A71   :   A5;
  A72   :    7;
  A73   :   38;
  A74   :   E5;
  A75   :    4;
  A76   :   B0;
  A77   :   18;
  A78   :   C6;
  A79   :    6;
  A7A   :   90;
  A7B   :   14;
  A7C   :   A5;
  A7D   :    7;
  A7E   :   A4;
  A7F   :   C0;
  A80   :   E0;
  A81   :    2;
  A82   :   B0;
  A83   :    E;
  A84   :   C0;
  A85   :    6;
  A86   :   F0;
  A87   :    4;
  A88   :   C0;
  A89   :    7;
  A8A   :   D0;
  A8B   :    6;
  A8C   :   A9;
  A8D   :    5;
  A8E   :    5;
  A8F   :    7;
  A90   :   85;
  A91   :    7;
  A92   :   38;
  A93   :   FD;
  A94   :   27;
  A95   :    5;
  A96   :   85;
  A97   :    4;
  A98   :   A5;
  A99   :    6;
  A9A   :   FD;
  A9B   :   13;
  A9C   :    5;
  A9D   :   90;
  A9E   :   62;
  A9F   :   85;
  AA0   :   A2;
  AA1   :   D0;
  AA2   :    4;
  AA3   :    5;
  AA4   :    4;
  AA5   :   F0;
  AA6   :   5A;
  AA7   :   BD;
  AA8   :   9B;
  AA9   :    4;
  AAA   :   C9;
  AAB   :    3;
  AAC   :   B0;
  AAD   :    C;
  AAE   :   A5;
  AAF   :   A2;
  AB0   :   D0;
  AB1   :   52;
  AB2   :   A5;
  AB3   :    4;
  AB4   :   C9;
  AB5   :    6;
  AB6   :   B0;
  AB7   :   4C;
  AB8   :   90;
  AB9   :   16;
  ABA   :   C9;
  ABB   :    5;
  ABC   :   F0;
  ABD   :    E;
  ABE   :   A5;
  ABF   :    4;
  AC0   :   C9;
  AC1   :    9;
  AC2   :   B0;
  AC3   :   40;
  AC4   :   BD;
  AC5   :   C7;
  AC6   :    5;
  AC7   :   10;
  AC8   :   3B;
  AC9   :   18;
  ACA   :   90;
  ACB   :    4;
  ACC   :   A5;
  ACD   :    4;
  ACE   :   C9;
  ACF   :    6;
  AD0   :   A5;
  AD1   :    7;
  AD2   :   B0;
  AD3   :    A;
  AD4   :   9D;
  AD5   :   27;
  AD6   :    5;
  AD7   :   A5;
  AD8   :    6;
  AD9   :   9D;
  ADA   :   13;
  ADB   :    5;
  ADC   :   90;
  ADD   :    D;
  ADE   :   BD;
  ADF   :   27;
  AE0   :    5;
  AE1   :   69;
  AE2   :    3;
  AE3   :   9D;
  AE4   :   27;
  AE5   :    5;
  AE6   :   90;
  AE7   :    3;
  AE8   :   FE;
  AE9   :   13;
  AEA   :    5;
  AEB   :   BD;
  AEC   :   9B;
  AED   :    4;
  AEE   :   C9;
  AEF   :    7;
  AF0   :   F0;
  AF1   :    F;
  AF2   :   BD;
  AF3   :   C7;
  AF4   :    5;
  AF5   :   10;
  AF6   :    A;
  AF7   :   A9;
  AF8   :   FF;
  AF9   :   9D;
  AFA   :   C7;
  AFB   :    5;
  AFC   :   A9;
  AFD   :    0;
  AFE   :   9D;
  AFF   :   DB;
  B00   :    5;
  B01   :   A9;
  B02   :    0;
  B03   :   60;
  B04   :   A9;
  B05   :    1;
  B06   :   60;
  B07   :   A9;
  B08   :    9;
  B09   :   85;
  B0A   :   CE;
  B0B   :   85;
  B0C   :   CF;
  B0D   :   60;
  B0E   :   F6;
  B0F   :   C8;
  B10   :   F8;
  B11   :   96;
  B12   :   F8;
  B13   :   96;
  B14   :   F8;
  B15   :   96;
  B16   :   F8;
  B17   :   96;
  B18   :    2;
  B19   :   D3;
  B1A   :   CA;
  B1B   :   AF;
  B1C   :   A6;
  B1D   :   B4;
  B1E   :   3D;
  B1F   :   AF;
  B20   :   72;
  B21   :   B2;
  B22   :   C0;
  B23   :   B5;
  B24   :   5A;
  B25   :   B6;
  B26   :   EA;
  B27   :   AF;
  B28   :   E5;
  B29   :   B6;
  B2A   :   59;
  B2B   :   B7;
  B2C   :   8E;
  B2D   :   B8;
  B2E   :   CE;
  B2F   :   B8;
  B30   :    7;
  B31   :   B9;
  B32   :   59;
  B33   :   B9;
  B34   :   D9;
  B35   :   B9;
  B36   :   7F;
  B37   :   BA;
  B38   :   14;
  B39   :   BB;
  B3A   :   5D;
  B3B   :   BB;
  B3C   :   AF;
  B3D   :   BD;
  B3E   :   37;
  B3F   :   BE;
  B40   :   8B;
  B41   :   C7;
  B42   :   8E;
  B43   :   BE;
  B44   :   48;
  B45   :   C0;
  B46   :   B5;
  B47   :   C0;
  B48   :   B5;
  B49   :   C0;
  B4A   :   B5;
  B4B   :   C0;
  B4C   :   B5;
  B4D   :   C0;
  B4E   :   B5;
  B4F   :   C0;
  B50   :   F9;
  B51   :   C1;
  B52   :   86;
  B53   :   B9;
  B54   :   58;
  B55   :   C8;
  B56   :   AF;
  B57   :   BD;
  B58   :   B5;
  B59   :   C9;
  B5A   :   D7;
  B5B   :   C1;
  B5C   :   EB;
  B5D   :   CA;
  B5E   :   2A;
  B5F   :   CB;
  B60   :   48;
  B61   :   CB;
  B62   :   87;
  B63   :   CB;
  B64   :   B5;
  B65   :   C0;
  B66   :   B3;
  B67   :   B9;
  B68   :   8C;
  B69   :   AE;
  B6A   :   A6;
  B6B   :   CB;
  B6C   :   BD;
  B6D   :   CB;
  B6E   :   4B;
  B6F   :   CC;
  B70   :   EA;
  B71   :   AF;
  B72   :   EA;
  B73   :   AF;
  B74   :   EA;
  B75   :   AF;
  B76   :   34;
  B77   :   C6;
  B78   :   8A;
  B79   :   C6;
  B7A   :   C7;
  B7B   :   C7;
  B7C   :   A1;
  B7D   :   9E;
  B7E   :   D5;
  B7F   :   B9;
  B80   :   8A;
  B81   :   C6;
  B82   :   1D;
  B83   :   9F;
  B84   :   8A;
  B85   :   C6;
  B86   :   2C;
  B87   :   CC;
  B88   :    0;
  B89   :    7;
  B8A   :   7C;
  B8B   :    7;
  B8C   :    B;
  B8D   :   9E;
  B8E   :    0;
  B8F   :   24;
  B90   :   24;
  B91   :   24;
  B92   :   24;
  B93   :   84;
  B94   :   24;
  B95   :   A4;
  B96   :    4;
  B97   :   24;
  B98   :    4;
  B99   :   21;
  B9A   :   21;
  B9B   :    0;
  B9C   :   11;
  B9D   :   11;
  B9E   :    2;
  B9F   :   32;
  BA0   :   91;
  BA1   :   61;
  BA2   :   10;
  BA3   :   A4;
  BA4   :   24;
  BA5   :    4;
  BA6   :   94;
  BA7   :    8;
  BA8   :   24;
  BA9   :   84;
  BAA   :    4;
  BAB   :    2;
  BAC   :    2;
  BAD   :    2;
  BAE   :    2;
  BAF   :    2;
  BB0   :   62;
  BB1   :    2;
  BB2   :    2;
  BB3   :    2;
  BB4   :    2;
  BB5   :    2;
  BB6   :    F;
  BB7   :   82;
  BB8   :   81;
  BB9   :    3;
  BBA   :   43;
  BBB   :    1;
  BBC   :   84;
  BBD   :   FF;
  BBE   :    2;
  BBF   :   A4;
  BC0   :    4;
  BC1   :    4;
  BC2   :    4;
  BC3   :   44;
  BC4   :    8;
  BC5   :    4;
  BC6   :    4;
  BC7   :    4;
  BC8   :    4;
  BC9   :   44;
  BCA   :   84;
  BCB   :    4;
  BCC   :    4;
  BCD   :   1F;
  BCE   :   A5;
  BCF   :   B8;
  BD0   :   F0;
  BD1   :    8;
  BD2   :   C9;
  BD3   :   FC;
  BD4   :   B0;
  BD5   :    4;
  BD6   :   C9;
  BD7   :   DC;
  BD8   :   B0;
  BD9   :    7;
  BDA   :   A0;
  BDB   :    0;
  BDC   :   84;
  BDD   :    8;
  BDE   :   20;
  BDF   :   17;
  BE0   :   AE;
  BE1   :   A5;
  BE2   :   6D;
  BE3   :   29;
  BE4   :    1;
  BE5   :    9;
  BE6   :   90;
  BE7   :   8D;
  BE8   :    0;
  BE9   :   20;
  BEA   :   29;
  BEB   :   7F;
  BEC   :   85;
  BED   :    0;
  BEE   :   A5;
  BEF   :    1;
  BF0   :   8D;
  BF1   :    1;
  BF2   :   20;
  BF3   :   A5;
  BF4   :   6E;
  BF5   :   8D;
  BF6   :    5;
  BF7   :   20;
  BF8   :   A5;
  BF9   :   73;
  BFA   :   38;
  BFB   :   E5;
  BFC   :   C3;
  BFD   :   8D;
  BFE   :    5;
  BFF   :   20;
  C00   :   60;
  C01   :   86;
  C02   :   DD;
  C03   :   84;
  C04   :   DE;
  C05   :   A9;
  C06   :    F;
  C07   :   85;
  C08   :   10;
  C09   :   A9;
  C0A   :   8C;
  C0B   :   85;
  C0C   :   11;
  C0D   :   D0;
  C0E   :   16;
  C0F   :   20;
  C10   :   4A;
  C11   :   D5;
  C12   :   A2;
  C13   :    8;
  C14   :   20;
  C15   :   F7;
  C16   :   80;
  C17   :   20;
  C18   :   E1;
  C19   :   8B;
  C1A   :   A5;
  C1B   :   E2;
  C1C   :   20;
  C1D   :   C9;
  C1E   :   FF;
  C1F   :   20;
  C20   :   9A;
  C21   :   D6;
  C22   :   20;
  C23   :   7C;
  C24   :   E1;
  C25   :   A5;
  C26   :   DE;
  C27   :   10;
  C28   :    8;
  C29   :   20;
  C2A   :   C3;
  C2B   :   81;
  C2C   :   D0;
  C2D   :   1C;
  C2E   :   6C;
  C2F   :   DD;
  C30   :    0;
  C31   :   20;
  C32   :   6C;
  C33   :   81;
  C34   :   A5;
  C35   :   4C;
  C36   :   D0;
  C37   :    D;
  C38   :   A9;
  C39   :    F;
  C3A   :   8D;
  C3B   :   15;
  C3C   :   40;
  C3D   :   A9;
  C3E   :   69;
  C3F   :   85;
  C40   :   10;
  C41   :   A9;
  C42   :   8C;
  C43   :   85;
  C44   :   11;
  C45   :   A9;
  C46   :    3;
  C47   :   20;
  C48   :   50;
  C49   :   81;
  C4A   :   4C;
  C4B   :   3F;
  C4C   :   81;
  C4D   :    0;
  C4E   :    5;
  C4F   :    A;
  C50   :    0;
  C51   :    6;
  C52   :    4;
  C53   :    2;
  C54   :    4;
  C55   :    9;
  C56   :    1;
  C57   :    8;
  C58   :    9;
  C59   :    0;
  C5A   :    5;
  C5B   :    A;
  C5C   :    0;
  C5D   :    3;
  C5E   :    4;
  C5F   :    5;
  C60   :    1;
  C61   :    2;
  C62   :    5;
  C63   :    1;
  C64   :    2;
  C65   :    2;
  C66   :   FF;
  C67   :    0;
  C68   :    8;
  C69   :   A5;
  C6A   :   F9;
  C6B   :   F0;
  C6C   :   36;
  C6D   :   A9;
  C6E   :    6;
  C6F   :   20;
  C70   :   C9;
  C71   :   FF;
  C72   :   A8;
  C73   :   A9;
  C74   :    F;
  C75   :   8D;
  C76   :    6;
  C77   :   20;
  C78   :   A9;
  C79   :   78;
  C7A   :   8D;
  C7B   :    6;
  C7C   :   20;
  C7D   :   A9;
  C7E   :   77;
  C7F   :   85;
  C80   :   AC;
  C81   :   84;
  C82   :   AB;
  C83   :   AD;
  C84   :    7;
  C85   :   20;
  C86   :   AD;
  C87   :    7;
  C88   :   20;
  C89   :   99;
  C8A   :   53;
  C8B   :    6;
  C8C   :   AD;
  C8D   :    7;
  C8E   :   20;
  C8F   :   99;
  C90   :   54;
  C91   :    6;
  C92   :   C8;
  C93   :   C8;
  C94   :   C0;
  C95   :   77;
  C96   :   90;
  C97   :   EE;
  C98   :   20;
  C99   :   E1;
  C9A   :   8B;
  C9B   :   A5;
  C9C   :   E2;
  C9D   :   20;
  C9E   :   C9;
  C9F   :   FF;
  CA0   :   4C;
  CA1   :   CA;
  CA2   :   8C;
  CA3   :   A9;
  CA4   :   3F;
  CA5   :   8D;
  CA6   :    6;
  CA7   :   20;
  CA8   :   A9;
  CA9   :    D;
  CAA   :   8D;
  CAB   :    6;
  CAC   :   20;
  CAD   :   A4;
  CAE   :   DB;
  CAF   :   B9;
  CB0   :   F6;
  CB1   :   AE;
  CB2   :   8D;
  CB3   :    7;
  CB4   :   20;
  CB5   :   B9;
  CB6   :   F7;
  CB7   :   AE;
  CB8   :   8D;
  CB9   :    7;
  CBA   :   20;
  CBB   :   B9;
  CBC   :   F8;
  CBD   :   AE;
  CBE   :   8D;
  CBF   :    7;
  CC0   :   20;
  CC1   :   20;
  CC2   :   3E;
  CC3   :   AC;
  CC4   :   20;
  CC5   :   4A;
  CC6   :   D5;
  CC7   :   20;
  CC8   :   CE;
  CC9   :   8B;
  CCA   :   A5;
  CCB   :   E2;
  CCC   :   20;
  CCD   :   C9;
  CCE   :   FF;
  CCF   :   20;
  CD0   :   79;
  CD1   :   D2;
  CD2   :   A0;
  CD3   :    1;
  CD4   :   98;
  CD5   :   25;
  CD6   :    2;
  CD7   :   85;
  CD8   :    5;
  CD9   :   B9;
  CDA   :    B;
  CDB   :    4;
  CDC   :   F0;
  CDD   :   17;
  CDE   :   38;
  CDF   :   E5;
  CE0   :    5;
  CE1   :   99;
  CE2   :    B;
  CE3   :    4;
  CE4   :   B9;
  CE5   :   16;
  CE6   :    0;
  CE7   :   29;
  CE8   :    F;
  CE9   :   AA;
  CEA   :   B9;
  CEB   :   16;
  CEC   :    0;
  CED   :   29;
  CEE   :   F0;
  CEF   :   1D;
  CF0   :   AA;
  CF1   :   D2;
  CF2   :   99;
  CF3   :   16;
  CF4   :    0;
  CF5   :   88;
  CF6   :   10;
  CF7   :   E1;
  CF8   :   20;
  CF9   :   9A;
  CFA   :   D6;
  CFB   :   A5;
  CFC   :   F9;
  CFD   :   F0;
  CFE   :    4;
  CFF   :   C6;
  D00   :   F9;
  D01   :   F0;
  D02   :   5A;
  D03   :   20;
  D04   :   8B;
  D05   :   91;
  D06   :   A5;
  D07   :   C5;
  D08   :   F0;
  D09   :   2C;
  D0A   :   AD;
  D0B   :   93;
  D0C   :    4;
  D0D   :    D;
  D0E   :   94;
  D0F   :    4;
  D10   :   30;
  D11   :   24;
  D12   :   A5;
  D13   :   B5;
  D14   :    5;
  D15   :   B6;
  D16   :    5;
  D17   :   D3;
  D18   :    D;
  D19   :   85;
  D1A   :    4;
  D1B   :    D;
  D1C   :   86;
  D1D   :    4;
  D1E   :    D;
  D1F   :   83;
  D20   :    4;
  D21   :    D;
  D22   :   84;
  D23   :    4;
  D24   :   D0;
  D25   :   10;
  D26   :   A9;
  D27   :   2F;
  D28   :   20;
  D29   :   7C;
  D2A   :   81;
  D2B   :   F0;
  D2C   :    9;
  D2D   :   20;
  D2E   :   45;
  D2F   :   D2;
  D30   :   A9;
  D31   :   80;
  D32   :   85;
  D33   :   C5;
  D34   :   85;
  D35   :   D3;
  D36   :   20;
  D37   :   B7;
  D38   :   8D;
  D39   :   A5;
  D3A   :    2;
  D3B   :   29;
  D3C   :    7;
  D3D   :   D0;
  D3E   :    D;
  D3F   :   A5;
  D40   :   DB;
  D41   :   18;
  D42   :   69;
  D43   :    3;
  D44   :   C9;
  D45   :    9;
  D46   :   D0;
  D47   :    2;
  D48   :   A9;
  D49   :    0;
  D4A   :   85;
  D4B   :   DB;
  D4C   :   A5;
  D4D   :   C2;
  D4E   :   F0;
  D4F   :    B;
  D50   :   C6;
  D51   :   C2;
  D52   :   29;
  D53   :    4;
  D54   :   F0;
  D55   :    5;
  D56   :   A5;
  D57   :   C2;
  D58   :   4A;
  D59   :   4A;
  D5A   :   4A;
  D5B   :   85;
  D5C   :   C3;
  D5D   :   20;
  D5E   :   31;
  D5F   :   FA;
  D60   :   A5;
  D61   :   AF;
  D62   :   D0;
  D63   :   1C;
  D64   :   20;
  D65   :   AC;
  D66   :   8D;
  D67   :   F0;
  D68   :   40;
  D69   :   A6;
  D6A   :   B2;
  D6B   :   8E;
  D6C   :   AC;
  D6D   :    3;
  D6E   :   85;
  D6F   :   B2;
  D70   :   A5;
  D71   :   B0;
  D72   :   8D;
  D73   :   A8;
  D74   :    3;
  D75   :   A9;
  D76   :   28;
  D77   :   85;
  D78   :   B0;
  D79   :   E6;
  D7A   :   AF;
  D7B   :   A9;
  D7C   :    C;
  D7D   :   8D;
  D7E   :   15;
  D7F   :   40;
  D80   :   A2;
  D81   :   C6;
  D82   :   A0;
  D83   :   8D;
  D84   :   86;
  D85   :   10;
  D86   :   84;
  D87   :   11;
  D88   :   A6;
  D89   :   B2;
  D8A   :   E0;
  D8B   :    2;
  D8C   :   B0;
  D8D   :   14;
  D8E   :   A5;
  D8F   :   D3;
  D90   :   D0;
  D91   :   10;
  D92   :   A5;
  D93   :   B0;
  D94   :   C9;
  D95   :   4C;
  D96   :   F0;
  D97   :    A;
  D98   :   BD;
  D99   :   DF;
  D9A   :    3;
  D9B   :   10;
  D9C   :    5;
  D9D   :   A9;
  D9E   :    7;
  D9F   :   20;
  DA0   :   2A;
  DA1   :   D6;
  DA2   :   20;
  DA3   :   6C;
  DA4   :   81;
  DA5   :   86;
  DA6   :   86;
  DA7   :   86;
  DA8   :   87;
  DA9   :   4C;
  DAA   :   3F;
  DAB   :   81;
  DAC   :   A5;
  DAD   :   18;
  DAE   :    5;
  DAF   :   19;
  DB0   :   29;
  DB1   :   10;
  DB2   :   45;
  DB3   :   DA;
  DB4   :   85;
  DB5   :   DA;
  DB6   :   60;
  DB7   :   AD;
  DB8   :    1;
  DB9   :    3;
  DBA   :   D0;
  DBB   :   FA;
  DBC   :   A4;
  DBD   :   AA;
  DBE   :   B9;
  DBF   :   5C;
  DC0   :   8C;
  DC1   :   30;
  DC2   :   F3;
  DC3   :   4C;
  DC4   :   2A;
  DC5   :   D6;
  DC6   :   20;
  DC7   :   4A;
  DC8   :   D5;
  DC9   :   A9;
  DCA   :   3F;
  DCB   :   8D;
  DCC   :    6;
  DCD   :   20;
  DCE   :   A2;
  DCF   :   11;
  DD0   :   8E;
  DD1   :    6;
  DD2   :   20;
  DD3   :   BD;
  DD4   :   EE;
  DD5   :   AE;
  DD6   :   8D;
  DD7   :    7;
  DD8   :   20;
  DD9   :   E8;
  DDA   :   E0;
  DDB   :   20;
  DDC   :   D0;
  DDD   :   F5;
  DDE   :   20;
  DDF   :   E1;
  DE0   :   8B;
  DE1   :   20;
  DE2   :   79;
  DE3   :   D2;
  DE4   :   A9;
  DE5   :    7;
  DE6   :   20;
  DE7   :   C9;
  DE8   :   FF;
  DE9   :   20;
  DEA   :   9A;
  DEB   :   D6;
  DEC   :   20;
  DED   :   B7;
  DEE   :   8D;
  DEF   :   A2;
  DF0   :    0;
  DF1   :   A5;
  DF2   :   B0;
  DF3   :   85;
  DF4   :    B;
  DF5   :   E6;
  DF6   :    B;
  DF7   :   86;
  DF8   :    7;
  DF9   :   A4;
  DFA   :    B;
  DFB   :   B9;
  DFC   :   3F;
  DFD   :   90;
  DFE   :   F0;
  DFF   :   46;
  E00   :   85;
  E01   :   5B;
  E02   :   B9;
  E03   :   40;
  E04   :   90;
  E05   :   85;
  E06   :   5C;
  E07   :   B9;
  E08   :   41;
  E09   :   90;
  E0A   :   85;
  E0B   :    6;
  E0C   :   B9;
  E0D   :   42;
  E0E   :   90;
  E0F   :   D0;
  E10   :    2;
  E11   :   A5;
  E12   :   B2;
  E13   :   85;
  E14   :    5;
  E15   :   B9;
  E16   :   43;
  E17   :   90;
  E18   :   85;
  E19   :    8;
  E1A   :   B9;
  E1B   :   44;
  E1C   :   90;
  E1D   :   85;
  E1E   :    9;
  E1F   :   98;
  E20   :   18;
  E21   :   69;
  E22   :    6;
  E23   :   85;
  E24   :    B;
  E25   :   A5;
  E26   :   B2;
  E27   :   C0;
  E28   :   1B;
  E29   :   F0;
  E2A   :    C;
  E2B   :   A9;
  E2C   :    0;
  E2D   :   C0;
  E2E   :   15;
  E2F   :   D0;
  E30   :    8;
  E31   :   A5;
  E32   :   B2;
  E33   :   F0;
  E34   :    2;
  E35   :   A9;
  E36   :    6;
  E37   :   E6;
  E38   :    7;
  E39   :   85;
  E3A   :    A;
  E3B   :   20;
  E3C   :   C6;
  E3D   :   90;
  E3E   :   E6;
  E3F   :    A;
  E40   :   C6;
  E41   :    6;
  E42   :   D0;
  E43   :   F7;
  E44   :   F0;
  E45   :   B3;
  E46   :   20;
  E47   :   1B;
  E48   :   FC;
  E49   :   A5;
  E4A   :    7;
  E4B   :   F0;
  E4C   :   2C;
  E4D   :   A5;
  E4E   :    2;
  E4F   :   6A;
  E50   :   B0;
  E51   :    B;
  E52   :   A5;
  E53   :   B1;
  E54   :   69;
  E55   :    2;
  E56   :   C9;
  E57   :    C;
  E58   :   D0;
  E59   :    1;
  E5A   :   8A;
  E5B   :   85;
  E5C   :   B1;
  E5D   :   A4;
  E5E   :   B1;
  E5F   :   A9;
  E60   :    2;
  E61   :   85;
  E62   :    4;
  E63   :   BE;
  E64   :   26;
  E65   :   90;
  E66   :   A9;
  E67   :   F8;
  E68   :   9D;
  E69   :    0;
  E6A   :    2;
  E6B   :   9D;
  E6C   :    4;
  E6D   :    2;
  E6E   :   9D;
  E6F   :   30;
  E70   :    2;
  E71   :   9D;
  E72   :   34;
  E73   :    2;
  E74   :   C8;
  E75   :   C6;
  E76   :    4;
  E77   :   D0;
  E78   :   EA;
  E79   :   A6;
  E7A   :   B2;
  E7B   :   A4;
  E7C   :   B0;
  E7D   :   C0;
  E7E   :   4C;
  E7F   :   D0;
  E80   :   35;
  E81   :   BD;
  E82   :   DF;
  E83   :    3;
  E84   :   10;
  E85   :   30;
  E86   :   A5;
  E87   :   FD;
  E88   :   F0;
  E89   :   2C;
  E8A   :   A9;
  E8B   :   80;
  E8C   :   85;
  E8D   :   87;
  E8E   :   A5;
  E8F   :    2;
  E90   :   29;
  E91   :   3F;
  E92   :   D0;
  E93   :    A;
  E94   :   C6;
  E95   :   FD;
  E96   :   D0;
  E97   :    6;
  E98   :   A9;
  E99   :   FF;
  E9A   :   95;
  E9B   :   FB;
  E9C   :   D0;
  E9D   :   18;
  E9E   :   B5;
  E9F   :   18;
  EA0   :   29;
  EA1   :   F0;
  EA2   :   F0;
  EA3   :   12;
  EA4   :   A9;
  EA5   :    C;
  EA6   :   20;
  EA7   :   EE;
  EA8   :   81;
  EA9   :   20;
  EAA   :   F2;
  EAB   :   81;
  EAC   :   20;
  EAD   :    7;
  EAE   :   8B;
  EAF   :   A9;
  EB0   :    2;
  EB1   :   9D;
  EB2   :   DF;
  EB3   :    3;
  EB4   :   D0;
  EB5   :   32;
  EB6   :   A5;
  EB7   :   DA;
  EB8   :   F0;
  EB9   :    9;
  EBA   :   A5;
  EBB   :   86;
  EBC   :   C9;
  EBD   :   68;
  EBE   :   D0;
  EBF   :    3;
  EC0   :   20;
  EC1   :   AC;
  EC2   :   8D;
  EC3   :   A5;
  EC4   :   87;
  EC5   :   D9;
  EC6   :   3F;
  EC7   :   90;
  EC8   :   A9;
  EC9   :   F7;
  ECA   :   B0;
  ECB   :   14;
  ECC   :   A5;
  ECD   :   B0;
  ECE   :   C9;
  ECF   :    E;
  ED0   :   D0;
  ED1   :    B;
  ED2   :   A5;
  ED3   :   17;
  ED4   :    5;
  ED5   :   18;
  ED6   :   F0;
  ED7   :    5;
  ED8   :   B9;
  ED9   :   3F;
  EDA   :   90;
  EDB   :   85;
  EDC   :   87;
  EDD   :   A9;
  EDE   :    8;
  EDF   :   18;
  EE0   :   65;
  EE1   :   86;
  EE2   :   C9;
  EE3   :   70;
  EE4   :   B0;
  EE5   :    5;
  EE6   :   85;
  EE7   :   86;
  EE8   :   4C;
  EE9   :   3F;
  EEA   :   81;
  EEB   :   C9;
  EEC   :   F0;
  EED   :   B0;
  EEE   :    8;
  EEF   :   A5;
  EF0   :   DA;
  EF1   :   D0;
  EF2   :   F5;
  EF3   :   E6;
  EF4   :   87;
  EF5   :   D0;
  EF6   :   F1;
  EF7   :   A6;
  EF8   :   B2;
  EF9   :   E0;
  EFA   :   10;
  EFB   :   F0;
  EFC   :   48;
  EFD   :   A5;
  EFE   :   B0;
  EFF   :   D0;
  F00   :   10;
  F01   :   B5;
  F02   :   FB;
  F03   :   30;
  F04   :   12;
  F05   :   D6;
  F06   :   FB;
  F07   :   A9;
  F08   :    9;
  F09   :   85;
  F0A   :   FD;
  F0B   :   A9;
  F0C   :   4C;
  F0D   :   85;
  F0E   :   B0;
  F0F   :   D0;
  F10   :   31;
  F11   :   49;
  F12   :   4C;
  F13   :   D0;
  F14   :    2;
  F15   :   85;
  F16   :   B0;
  F17   :   B5;
  F18   :   D1;
  F19   :   F0;
  F1A   :   2A;
  F1B   :   86;
  F1C   :   B2;
  F1D   :   A9;
  F1E   :    4;
  F1F   :   C5;
  F20   :   CE;
  F21   :   90;
  F22   :    8;
  F23   :   F0;
  F24   :    6;
  F25   :   85;
  F26   :   CE;
  F27   :   A9;
  F28   :    0;
  F29   :   85;
  F2A   :   CF;
  F2B   :   A9;
  F2C   :    0;
  F2D   :   95;
  F2E   :   D1;
  F2F   :   A4;
  F30   :   D3;
  F31   :   F0;
  F32   :   12;
  F33   :   85;
  F34   :   D3;
  F35   :   30;
  F36   :    3;
  F37   :   20;
  F38   :    7;
  F39   :   8B;
  F3A   :   FE;
  F3B   :   DF;
  F3C   :    3;
  F3D   :   20;
  F3E   :    6;
  F3F   :   BE;
  F40   :   D6;
  F41   :   D1;
  F42   :   4C;
  F43   :   88;
  F44   :   8D;
  F45   :   A9;
  F46   :    0;
  F47   :   85;
  F48   :   D3;
  F49   :   85;
  F4A   :   AF;
  F4B   :   E0;
  F4C   :   10;
  F4D   :   D0;
  F4E   :    D;
  F4F   :   AD;
  F50   :   AC;
  F51   :    3;
  F52   :   85;
  F53   :   B2;
  F54   :   AD;
  F55   :   A8;
  F56   :    3;
  F57   :   85;
  F58   :   B0;
  F59   :   4C;
  F5A   :    B;
  F5B   :   90;
  F5C   :   BD;
  F5D   :   DF;
  F5E   :    3;
  F5F   :   10;
  F60   :    5;
  F61   :   A9;
  F62   :    0;
  F63   :   9D;
  F64   :   9B;
  F65   :    4;
  F66   :   AD;
  F67   :   DF;
  F68   :    3;
  F69   :   10;
  F6A   :    C;
  F6B   :   B5;
  F6C   :   D2;
  F6D   :   D0;
  F6E   :    8;
  F6F   :   AD;
  F70   :   E0;
  F71   :    3;
  F72   :   10;
  F73   :    3;
  F74   :   4C;
  F75   :   FD;
  F76   :   8F;
  F77   :   A9;
  F78   :    4;
  F79   :   9D;
  F7A   :   AF;
  F7B   :    4;
  F7C   :   A4;
  F7D   :   B2;
  F7E   :   B9;
  F7F   :   67;
  F80   :    4;
  F81   :   9D;
  F82   :   C3;
  F83   :    4;
  F84   :   8A;
  F85   :   18;
  F86   :   69;
  F87   :   14;
  F88   :   AA;
  F89   :   C8;
  F8A   :   C8;
  F8B   :   C0;
  F8C   :    C;
  F8D   :   90;
  F8E   :   EF;
  F8F   :   A6;
  F90   :   B2;
  F91   :   20;
  F92   :   FC;
  F93   :   9D;
  F94   :   86;
  F95   :   56;
  F96   :   20;
  F97   :   DE;
  F98   :   9C;
  F99   :   BD;
  F9A   :    F;
  F9B   :    4;
  F9C   :   F0;
  F9D   :   22;
  F9E   :   A0;
  F9F   :    1;
  FA0   :   A9;
  FA1   :    5;
  FA2   :   20;
  FA3   :   85;
  FA4   :   81;
  FA5   :   D0;
  FA6   :   29;
  FA7   :   B9;
  FA8   :   3B;
  FA9   :    5;
  FAA   :   5D;
  FAB   :   9F;
  FAC   :    5;
  FAD   :   29;
  FAE   :   40;
  FAF   :   D0;
  FB0   :   EF;
  FB1   :   20;
  FB2   :   A4;
  FB3   :   81;
  FB4   :   BD;
  FB5   :   DF;
  FB6   :    3;
  FB7   :   10;
  FB8   :   E7;
  FB9   :   A9;
  FBA   :    0;
  FBB   :   99;
  FBC   :   9B;
  FBD   :    4;
  FBE   :   F0;
  FBF   :   E0;
  FC0   :   BD;
  FC1   :   DF;
  FC2   :    3;
  FC3   :   30;
  FC4   :    B;
  FC5   :   20;
  FC6   :   D2;
  FC7   :   D1;
  FC8   :   49;
  FC9   :    5;
  FCA   :   9D;
  FCB   :   9F;
  FCC   :    5;
  FCD   :   99;
  FCE   :   3B;
  FCF   :    5;
  FD0   :   20;
  FD1   :   89;
  FD2   :   86;
  FD3   :   8A;
  FD4   :   F0;
  FD5   :    2;
  FD6   :   A2;
  FD7   :   20;
  FD8   :   20;
  FD9   :   31;
  FDA   :   82;
  FDB   :   A6;
  FDC   :   B2;
  FDD   :   20;
  FDE   :   32;
  FDF   :   90;
  FE0   :   A6;
  FE1   :   B2;
  FE2   :   9D;
  FE3   :   CB;
  FE4   :    3;
  FE5   :   A9;
  FE6   :   40;
  FE7   :   9D;
  FE8   :    D;
  FE9   :    4;
  FEA   :   FE;
  FEB   :    1;
  FEC   :    4;
  FED   :   E0;
  FEE   :    0;
  FEF   :   D0;
  FF0   :   16;
  FF1   :   E8;
  FF2   :   B5;
  FF3   :   D1;
  FF4   :   F0;
  FF5   :   11;
  FF6   :   86;
  FF7   :   D3;
  FF8   :   E6;
  FF9   :   AF;
  FFA   :   4C;
  FFB   :   1B;
  FFC   :   8F;
  FFD   :   20;
  FFE   :   6C;
  FFF   :   81;
 1000   :   A2;
 1001   :   2C;
 1002   :   A0;
 1003   :   85;
 1004   :   4C;
 1005   :    1;
 1006   :   8C;
 1007   :   A9;
 1008   :   10;
 1009   :   85;
 100A   :   B2;
 100B   :   A9;
 100C   :    F;
 100D   :   8D;
 100E   :   15;
 100F   :   40;
 1010   :   85;
 1011   :   DE;
 1012   :   A5;
 1013   :   C5;
 1014   :   30;
 1015   :    7;
 1016   :   A2;
 1017   :    F;
 1018   :   A0;
 1019   :   8C;
 101A   :   4C;
 101B   :   84;
 101C   :   8D;
 101D   :   20;
 101E   :   6C;
 101F   :   81;
 1020   :   8A;
 1021   :   85;
 1022   :   C5;
 1023   :   4C;
 1024   :   10;
 1025   :   96;
 1026   :   50;
 1027   :   58;
 1028   :   58;
 1029   :   30;
 102A   :   30;
 102B   :   38;
 102C   :   38;
 102D   :   40;
 102E   :   40;
 102F   :   48;
 1030   :   48;
 1031   :   50;
 1032   :   A0;
 1033   :   17;
 1034   :   A9;
 1035   :    0;
 1036   :   9D;
 1037   :   FF;
 1038   :    3;
 1039   :   E8;
 103A   :   E8;
 103B   :   88;
 103C   :   D0;
 103D   :   F8;
 103E   :   60;
 103F   :   C0;
 1040   :   5E;
 1041   :   C9;
 1042   :    4;
 1043   :    0;
 1044   :   B3;
 1045   :   90;
 1046   :   5E;
 1047   :   E0;
 1048   :    4;
 1049   :    0;
 104A   :   B7;
 104B   :   90;
 104C   :    0;
 104D   :   50;
 104E   :   6E;
 104F   :   B8;
 1050   :    3;
 1051   :    0;
 1052   :   BB;
 1053   :   90;
 1054   :   4E;
 1055   :   C9;
 1056   :    6;
 1057   :    2;
 1058   :   E1;
 1059   :    3;
 105A   :   76;
 105B   :   E0;
 105C   :    1;
 105D   :    2;
 105E   :   DF;
 105F   :    3;
 1060   :   5E;
 1061   :   F2;
 1062   :    4;
 1063   :    0;
 1064   :   BE;
 1065   :   90;
 1066   :    0;
 1067   :    1;
 1068   :   5E;
 1069   :   F0;
 106A   :    4;
 106B   :    0;
 106C   :   C2;
 106D   :   90;
 106E   :    0;
 106F   :   80;
 1070   :   62;
 1071   :   D9;
 1072   :    4;
 1073   :    2;
 1074   :   AC;
 1075   :   90;
 1076   :   67;
 1077   :   F0;
 1078   :    3;
 1079   :    2;
 107A   :   B0;
 107B   :   90;
 107C   :    0;
 107D   :   80;
 107E   :   67;
 107F   :   D9;
 1080   :    3;
 1081   :    2;
 1082   :   A5;
 1083   :   90;
 1084   :   5F;
 1085   :   F0;
 1086   :    4;
 1087   :    2;
 1088   :   A8;
 1089   :   90;
 108A   :    0;
 108B   :   C0;
 108C   :   5F;
 108D   :   C9;
 108E   :    4;
 108F   :    0;
 1090   :   9F;
 1091   :   90;
 1092   :   6F;
 1093   :   E0;
 1094   :    2;
 1095   :    0;
 1096   :   A3;
 1097   :   90;
 1098   :   77;
 1099   :   F8;
 109A   :    1;
 109B   :    2;
 109C   :   FD;
 109D   :    0;
 109E   :    0;
 109F   :   19;
 10A0   :   15;
 10A1   :    A;
 10A2   :   22;
 10A3   :   18;
 10A4   :   17;
 10A5   :    A;
 10A6   :   15;
 10A7   :   15;
 10A8   :   10;
 10A9   :   18;
 10AA   :   17;
 10AB   :    E;
 10AC   :   1D;
 10AD   :   12;
 10AE   :   16;
 10AF   :    E;
 10B0   :   18;
 10B1   :   1E;
 10B2   :   1D;
 10B3   :   10;
 10B4   :    A;
 10B5   :   16;
 10B6   :    E;
 10B7   :   18;
 10B8   :   1F;
 10B9   :    E;
 10BA   :   1B;
 10BB   :   80;
 10BC   :   1E;
 10BD   :   19;
 10BE   :   15;
 10BF   :    E;
 10C0   :    F;
 10C1   :   1D;
 10C2   :   11;
 10C3   :   18;
 10C4   :   15;
 10C5   :    D;
 10C6   :   A4;
 10C7   :    A;
 10C8   :   B1;
 10C9   :    8;
 10CA   :   10;
 10CB   :    5;
 10CC   :   A5;
 10CD   :   B2;
 10CE   :   18;
 10CF   :   69;
 10D0   :    1;
 10D1   :    A;
 10D2   :    A;
 10D3   :   A8;
 10D4   :   A5;
 10D5   :   5B;
 10D6   :   9D;
 10D7   :    3;
 10D8   :    2;
 10D9   :   9D;
 10DA   :    7;
 10DB   :    2;
 10DC   :   69;
 10DD   :    8;
 10DE   :   85;
 10DF   :   5B;
 10E0   :   9D;
 10E1   :    B;
 10E2   :    2;
 10E3   :   9D;
 10E4   :    F;
 10E5   :    2;
 10E6   :   B9;
 10E7   :    B;
 10E8   :   E3;
 10E9   :   19;
 10EA   :    D;
 10EB   :   E3;
 10EC   :   F0;
 10ED   :    6;
 10EE   :   A5;
 10EF   :   5B;
 10F0   :   69;
 10F1   :    8;
 10F2   :   85;
 10F3   :   5B;
 10F4   :   A5;
 10F5   :   5C;
 10F6   :   65;
 10F7   :   86;
 10F8   :   9D;
 10F9   :    0;
 10FA   :    2;
 10FB   :   9D;
 10FC   :    8;
 10FD   :    2;
 10FE   :   18;
 10FF   :   69;
 1100   :    8;
 1101   :   9D;
 1102   :    4;
 1103   :    2;
 1104   :   9D;
 1105   :    C;
 1106   :    2;
 1107   :   A9;
 1108   :    4;
 1109   :   85;
 110A   :    4;
 110B   :   BD;
 110C   :    0;
 110D   :    2;
 110E   :   49;
 110F   :   80;
 1110   :   29;
 1111   :   80;
 1112   :   F0;
 1113   :    3;
 1114   :   B9;
 1115   :    A;
 1116   :   E3;
 1117   :   9D;
 1118   :    1;
 1119   :    2;
 111A   :   A5;
 111B   :    5;
 111C   :   9D;
 111D   :    2;
 111E   :    2;
 111F   :   C8;
 1120   :   E8;
 1121   :   E8;
 1122   :   E8;
 1123   :   E8;
 1124   :   C6;
 1125   :    4;
 1126   :   D0;
 1127   :   E3;
 1128   :   BD;
 1129   :   F5;
 112A   :    1;
 112B   :   85;
 112C   :    4;
 112D   :   BD;
 112E   :   F9;
 112F   :    1;
 1130   :   9D;
 1131   :   F5;
 1132   :    1;
 1133   :   A5;
 1134   :    4;
 1135   :   9D;
 1136   :   F9;
 1137   :    1;
 1138   :   60;
 1139   :   20;
 113A   :   86;
 113B   :   91;
 113C   :   AD;
 113D   :    9;
 113E   :    4;
 113F   :    D;
 1140   :    A;
 1141   :    4;
 1142   :    5;
 1143   :   AF;
 1144   :    D;
 1145   :    F;
 1146   :    4;
 1147   :    D;
 1148   :   10;
 1149   :    4;
 114A   :    5;
 114B   :   B8;
 114C   :   D0;
 114D   :   37;
 114E   :   A8;
 114F   :   AD;
 1150   :   9B;
 1151   :    4;
 1152   :   6D;
 1153   :   9C;
 1154   :    4;
 1155   :   C9;
 1156   :   10;
 1157   :   B0;
 1158   :   2C;
 1159   :   20;
 115A   :   BE;
 115B   :   92;
 115C   :   20;
 115D   :   B2;
 115E   :   93;
 115F   :   A5;
 1160   :   BD;
 1161   :   D0;
 1162   :   23;
 1163   :   A5;
 1164   :   AA;
 1165   :   C9;
 1166   :    A;
 1167   :   F0;
 1168   :   1D;
 1169   :   A0;
 116A   :    2;
 116B   :   20;
 116C   :   BE;
 116D   :   92;
 116E   :   20;
 116F   :   B2;
 1170   :   93;
 1171   :   A5;
 1172   :   7E;
 1173   :   18;
 1174   :   65;
 1175   :   73;
 1176   :   C9;
 1177   :   F0;
 1178   :   90;
 1179   :    9;
 117A   :   69;
 117B   :    F;
 117C   :   A4;
 117D   :   7E;
 117E   :   10;
 117F   :    3;
 1180   :   38;
 1181   :   E9;
 1182   :   20;
 1183   :   85;
 1184   :   73;
 1185   :   60;
 1186   :   A9;
 1187   :   80;
 1188   :   85;
 1189   :   A4;
 118A   :   60;
 118B   :   A5;
 118C   :    0;
 118D   :   8D;
 118E   :    0;
 118F   :   20;
 1190   :   A2;
 1191   :    0;
 1192   :   A4;
 1193   :   61;
 1194   :   84;
 1195   :   62;
 1196   :   86;
 1197   :   61;
 1198   :   A4;
 1199   :   B4;
 119A   :   84;
 119B   :   B5;
 119C   :   86;
 119D   :   B4;
 119E   :   20;
 119F   :   39;
 11A0   :   91;
 11A1   :   20;
 11A2   :   97;
 11A3   :   A1;
 11A4   :   A5;
 11A5   :    0;
 11A6   :    9;
 11A7   :   80;
 11A8   :   8D;
 11A9   :    0;
 11AA   :   20;
 11AB   :   A2;
 11AC   :   13;
 11AD   :   A5;
 11AE   :   DC;
 11AF   :   F0;
 11B0   :    4;
 11B1   :   C6;
 11B2   :   DC;
 11B3   :   D0;
 11B4   :    0;
 11B5   :   BD;
 11B6   :   9B;
 11B7   :    4;
 11B8   :   F0;
 11B9   :   33;
 11BA   :   86;
 11BB   :   56;
 11BC   :   A4;
 11BD   :   B8;
 11BE   :   F0;
 11BF   :   12;
 11C0   :   C9;
 11C1   :   23;
 11C2   :   F0;
 11C3   :    E;
 11C4   :   C9;
 11C5   :   28;
 11C6   :   F0;
 11C7   :    A;
 11C8   :   C9;
 11C9   :    A;
 11CA   :   F0;
 11CB   :    6;
 11CC   :   C9;
 11CD   :    B;
 11CE   :   F0;
 11CF   :    2;
 11D0   :   A9;
 11D1   :    0;
 11D2   :    A;
 11D3   :   A8;
 11D4   :   B9;
 11D5   :    E;
 11D6   :   8B;
 11D7   :   85;
 11D8   :    C;
 11D9   :   B9;
 11DA   :    F;
 11DB   :   8B;
 11DC   :   85;
 11DD   :    D;
 11DE   :   20;
 11DF   :   BB;
 11E0   :   92;
 11E1   :   A6;
 11E2   :   56;
 11E3   :   BD;
 11E4   :   9B;
 11E5   :    4;
 11E6   :   D0;
 11E7   :    5;
 11E8   :   A4;
 11E9   :   56;
 11EA   :   20;
 11EB   :    9;
 11EC   :   E2;
 11ED   :   CA;
 11EE   :   10;
 11EF   :   C5;
 11F0   :   20;
 11F1   :   7C;
 11F2   :   E1;
 11F3   :   A2;
 11F4   :    0;
 11F5   :   BD;
 11F6   :   9B;
 11F7   :    4;
 11F8   :   F0;
 11F9   :   61;
 11FA   :   86;
 11FB   :   56;
 11FC   :   20;
 11FD   :   92;
 11FE   :   92;
 11FF   :   D0;
 1200   :   5A;
 1201   :   20;
 1202   :   A2;
 1203   :   92;
 1204   :   F0;
 1205   :   1D;
 1206   :   C9;
 1207   :    1;
 1208   :   D0;
 1209   :   51;
 120A   :   BD;
 120B   :   9B;
 120C   :    4;
 120D   :   C9;
 120E   :   1A;
 120F   :   F0;
 1210   :   4A;
 1211   :   BD;
 1212   :   CB;
 1213   :    3;
 1214   :   38;
 1215   :   FD;
 1216   :   77;
 1217   :    5;
 1218   :   B0;
 1219   :   41;
 121A   :   49;
 121B   :   FF;
 121C   :   9D;
 121D   :   77;
 121E   :    5;
 121F   :   A9;
 1220   :   F8;
 1221   :   D0;
 1222   :    8;
 1223   :   A9;
 1224   :   F9;
 1225   :   18;
 1226   :   7D;
 1227   :   CB;
 1228   :    3;
 1229   :   90;
 122A   :   30;
 122B   :   9D;
 122C   :   CB;
 122D   :    3;
 122E   :   E0;
 122F   :    4;
 1230   :   B0;
 1231   :   51;
 1232   :   A4;
 1233   :   AA;
 1234   :   C0;
 1235   :    A;
 1236   :   F0;
 1237   :    6;
 1238   :   A4;
 1239   :   DC;
 123A   :   C0;
 123B   :   20;
 123C   :   B0;
 123D   :   1D;
 123E   :   E0;
 123F   :    2;
 1240   :   B0;
 1241   :   41;
 1242   :   69;
 1243   :   FB;
 1244   :   BC;
 1245   :   15;
 1246   :    4;
 1247   :   D0;
 1248   :    2;
 1249   :   69;
 124A   :    7;
 124B   :   9D;
 124C   :   CB;
 124D   :    3;
 124E   :   A5;
 124F   :   B8;
 1250   :   1D;
 1251   :    3;
 1252   :    4;
 1253   :   D0;
 1254   :   2E;
 1255   :   20;
 1256   :   32;
 1257   :   94;
 1258   :   4C;
 1259   :   83;
 125A   :   92;
 125B   :   BD;
 125C   :   B3;
 125D   :    5;
 125E   :    9;
 125F   :   80;
 1260   :   9D;
 1261   :   B3;
 1262   :    5;
 1263   :   E0;
 1264   :    2;
 1265   :   B0;
 1266   :   22;
 1267   :   BD;
 1268   :   9B;
 1269   :    4;
 126A   :   F0;
 126B   :   1D;
 126C   :   BD;
 126D   :    F;
 126E   :    4;
 126F   :   1D;
 1270   :    9;
 1271   :    4;
 1272   :   1D;
 1273   :   8D;
 1274   :    4;
 1275   :    5;
 1276   :   DC;
 1277   :    5;
 1278   :   B8;
 1279   :    5;
 127A   :   BD;
 127B   :   D0;
 127C   :    C;
 127D   :   20;
 127E   :   45;
 127F   :   9D;
 1280   :   4C;
 1281   :   89;
 1282   :   92;
 1283   :   1E;
 1284   :   B3;
 1285   :    5;
 1286   :   5E;
 1287   :   B3;
 1288   :    5;
 1289   :   E8;
 128A   :   E0;
 128B   :   14;
 128C   :   F0;
 128D   :    3;
 128E   :   4C;
 128F   :   F5;
 1290   :   91;
 1291   :   60;
 1292   :   20;
 1293   :   68;
 1294   :   80;
 1295   :   A5;
 1296   :    4;
 1297   :   38;
 1298   :   E5;
 1299   :   6E;
 129A   :   9D;
 129B   :   B7;
 129C   :    3;
 129D   :   A5;
 129E   :    5;
 129F   :   E5;
 12A0   :   6D;
 12A1   :   60;
 12A2   :   20;
 12A3   :   80;
 12A4   :   80;
 12A5   :   A5;
 12A6   :    4;
 12A7   :   18;
 12A8   :   65;
 12A9   :   C3;
 12AA   :   90;
 12AB   :    2;
 12AC   :   E6;
 12AD   :    5;
 12AE   :   38;
 12AF   :   E5;
 12B0   :   70;
 12B1   :   9D;
 12B2   :   CB;
 12B3   :    3;
 12B4   :   A5;
 12B5   :    5;
 12B6   :   E5;
 12B7   :   6F;
 12B8   :   29;
 12B9   :   3F;
 12BA   :   60;
 12BB   :   6C;
 12BC   :    C;
 12BD   :    0;
 12BE   :   AD;
 12BF   :   DF;
 12C0   :    3;
 12C1   :   30;
 12C2   :   36;
 12C3   :   A5;
 12C4   :   E0;
 12C5   :   D0;
 12C6   :    A;
 12C7   :   AD;
 12C8   :   E0;
 12C9   :    3;
 12CA   :   30;
 12CB   :    5;
 12CC   :   AD;
 12CD   :   8D;
 12CE   :    4;
 12CF   :   D0;
 12D0   :   1D;
 12D1   :   20;
 12D2   :   64;
 12D3   :   80;
 12D4   :   A5;
 12D5   :    4;
 12D6   :   38;
 12D7   :   F9;
 12D8   :   6E;
 12D9   :    0;
 12DA   :   38;
 12DB   :   F9;
 12DC   :   87;
 12DD   :    4;
 12DE   :   18;
 12DF   :   79;
 12E0   :   87;
 12E1   :    4;
 12E2   :   99;
 12E3   :   87;
 12E4   :    4;
 12E5   :   A5;
 12E6   :   E0;
 12E7   :   D0;
 12E8   :    5;
 12E9   :   AD;
 12EA   :   8E;
 12EB   :    4;
 12EC   :   D0;
 12ED   :    5;
 12EE   :   AD;
 12EF   :   E0;
 12F0   :    3;
 12F1   :   10;
 12F2   :    6;
 12F3   :   B9;
 12F4   :   87;
 12F5   :    4;
 12F6   :   4C;
 12F7   :   24;
 12F8   :   93;
 12F9   :   E8;
 12FA   :   20;
 12FB   :   64;
 12FC   :   80;
 12FD   :   CA;
 12FE   :   A5;
 12FF   :    4;
 1300   :   38;
 1301   :   F9;
 1302   :   6E;
 1303   :    0;
 1304   :   38;
 1305   :   F9;
 1306   :   88;
 1307   :    4;
 1308   :   18;
 1309   :   79;
 130A   :   88;
 130B   :    4;
 130C   :   99;
 130D   :   88;
 130E   :    4;
 130F   :   AD;
 1310   :   DF;
 1311   :    3;
 1312   :   30;
 1313   :    5;
 1314   :   AD;
 1315   :   8D;
 1316   :    4;
 1317   :   F0;
 1318   :    8;
 1319   :   B9;
 131A   :   88;
 131B   :    4;
 131C   :   49;
 131D   :   80;
 131E   :   4C;
 131F   :   2D;
 1320   :   93;
 1321   :   B9;
 1322   :   88;
 1323   :    4;
 1324   :   38;
 1325   :   F9;
 1326   :   87;
 1327   :    4;
 1328   :   6A;
 1329   :   18;
 132A   :   79;
 132B   :   87;
 132C   :    4;
 132D   :   C9;
 132E   :   80;
 132F   :   6A;
 1330   :   C9;
 1331   :   80;
 1332   :   6A;
 1333   :   C9;
 1334   :   80;
 1335   :   6A;
 1336   :   20;
 1337   :   22;
 1338   :   94;
 1339   :   99;
 133A   :   7C;
 133B   :    0;
 133C   :   A2;
 133D   :    1;
 133E   :   BD;
 133F   :   9B;
 1340   :    4;
 1341   :   F0;
 1342   :   3C;
 1343   :   BD;
 1344   :   8D;
 1345   :    4;
 1346   :   D0;
 1347   :   37;
 1348   :   C0;
 1349   :    0;
 134A   :   D0;
 134B   :   17;
 134C   :   AD;
[...]
 7B1F   :    A;
 7B20   :   B9;
 7B21   :   B7;
 7B22   :    3;
 7B23   :   85;
 7B24   :    B;
 7B25   :   B9;
 7B26   :   CB;
 7B27   :    3;
 7B28   :   85;
 7B29   :    8;
 7B2A   :   A5;
 7B2B   :    2;
 7B2C   :   4A;
 7B2D   :   4A;
 7B2E   :   4A;
 7B2F   :   18;
 7B30   :   65;
 7B31   :   86;
 7B32   :   29;
 7B33   :    7;
 7B34   :   A8;
 7B35   :   A5;
 7B36   :    B;
 7B37   :   18;
 7B38   :   79;
 7B39   :   3F;
 7B3A   :   FC;
 7B3B   :   85;
 7B3C   :    B;
 7B3D   :   9D;
 7B3E   :    3;
 7B3F   :    2;
 7B40   :   6A;
 7B41   :   59;
 7B42   :   3F;
 7B43   :   FC;
 7B44   :   30;
 7B45   :   66;
 7B46   :   A5;
 7B47   :    8;
 7B48   :   38;
 7B49   :   F9;
 7B4A   :   47;
 7B4B   :   FC;
 7B4C   :   9D;
 7B4D   :    0;
 7B4E   :    2;
 7B4F   :   38;
 7B50   :   E9;
 7B51   :    C;
 7B52   :   85;
 7B53   :    8;
 7B54   :   C8;
 7B55   :   98;
 7B56   :   29;
 7B57   :    7;
 7B58   :   A8;
 7B59   :   A5;
 7B5A   :    A;
 7B5B   :   C5;
 7B5C   :    9;
 7B5D   :   A9;
 7B5E   :   BD;
 7B5F   :   69;
 7B60   :    0;
 7B61   :   9D;
 7B62   :    1;
 7B63   :    2;
 7B64   :   A9;
 7B65   :    2;
 7B66   :   9D;
 7B67   :    2;
 7B68   :    2;
 7B69   :   E8;
 7B6A   :   E8;
 7B6B   :   E8;
 7B6C   :   E8;
 7B6D   :   F0;
 7B6E   :   9D;
 7B6F   :   C6;
 7B70   :    9;
 7B71   :   D0;
 7B72   :   C2;
 7B73   :   F0;
 7B74   :   37;
 7B75   :   B9;
 7B76   :   B7;
 7B77   :    3;
 7B78   :   38;
 7B79   :   E9;
 7B7A   :    3;
 7B7B   :   90;
 7B7C   :   2F;
 7B7D   :   9D;
 7B7E   :    3;
 7B7F   :    2;
 7B80   :   B9;
 7B81   :   CB;
 7B82   :    3;
 7B83   :   38;
 7B84   :   F9;
 7B85   :   77;
 7B86   :    5;
 7B87   :   90;
 7B88   :   23;
 7B89   :   9D;
 7B8A   :    0;
 7B8B   :    2;
 7B8C   :   B9;
 7B8D   :    3;
 7B8E   :    6;
 7B8F   :   9D;
 7B90   :    1;
 7B91   :    2;
 7B92   :   B9;
 7B93   :   B3;
 7B94   :    5;
 7B95   :   29;
 7B96   :   67;
 7B97   :   9D;
 7B98   :    2;
 7B99   :    2;
 7B9A   :   29;
 7B9B   :    4;
 7B9C   :   F0;
 7B9D   :    8;
 7B9E   :   BD;
 7B9F   :    2;
 7BA0   :    2;
 7BA1   :   49;
 7BA2   :   84;
 7BA3   :   9D;
 7BA4   :    2;
 7BA5   :    2;
 7BA6   :   E8;
 7BA7   :   E8;
 7BA8   :   E8;
 7BA9   :   E8;
 7BAA   :   F0;
 7BAB   :   72;
 7BAC   :   E6;
 7BAD   :    4;
 7BAE   :   A4;
 7BAF   :    4;
 7BB0   :   C0;
 7BB1   :   14;
 7BB2   :   F0;
 7BB3   :    3;
 7BB4   :   4C;
 7BB5   :   E7;
 7BB6   :   FA;
 7BB7   :   A0;
 7BB8   :    0;
 7BB9   :   B9;
 7BBA   :   9B;
 7BBB   :    4;
 7BBC   :   F0;
 7BBD   :   58;
 7BBE   :   C9;
 7BBF   :   25;
 7BC0   :   D0;
 7BC1   :    8;
 7BC2   :   A9;
 7BC3   :    7;
 7BC4   :   79;
 7BC5   :   CB;
 7BC6   :    3;
 7BC7   :   99;
 7BC8   :   CB;
 7BC9   :    3;
 7BCA   :   A5;
 7BCB   :   FA;
 7BCC   :   D0;
 7BCD   :    5;
 7BCE   :   B9;
 7BCF   :   77;
 7BD0   :    5;
 7BD1   :   F0;
 7BD2   :   43;
 7BD3   :   B9;
 7BD4   :   B3;
 7BD5   :    5;
 7BD6   :   30;
 7BD7   :   3E;
 7BD8   :   29;
 7BD9   :   10;
 7BDA   :   D0;
 7BDB   :   3A;
 7BDC   :   C0;
 7BDD   :    2;
 7BDE   :   B0;
 7BDF   :    2;
 7BE0   :   A9;
 7BE1   :   FD;
 7BE2   :   18;
 7BE3   :   79;
 7BE4   :   CB;
 7BE5   :    3;
 7BE6   :   9D;
 7BE7   :    0;
 7BE8   :    2;
 7BE9   :   A5;
 7BEA   :   FA;
 7BEB   :   F0;
 7BEC   :    9;
 7BED   :   BD;
 7BEE   :    0;
 7BEF   :    2;
 7BF0   :   18;
 7BF1   :   69;
 7BF2   :    5;
 7BF3   :   9D;
 7BF4   :    0;
 7BF5   :    2;
 7BF6   :   B9;
 7BF7   :   B3;
 7BF8   :    5;
 7BF9   :    A;
 7BFA   :    A;
 7BFB   :   29;
 7BFC   :   20;
 7BFD   :    9;
 7BFE   :    1;
 7BFF   :   9D;
 7C00   :    2;
 7C01   :    2;
 7C02   :   A9;
 7C03   :    1;
 7C04   :   9D;
 7C05   :    1;
 7C06   :    2;
 7C07   :   B9;
 7C08   :   B7;
 7C09   :    3;
 7C0A   :   38;
 7C0B   :   E9;
 7C0C   :    4;
 7C0D   :   9D;
 7C0E   :    3;
 7C0F   :    2;
 7C10   :   E8;
 7C11   :   E8;
 7C12   :   E8;
 7C13   :   E8;
 7C14   :   F0;
 7C15   :    8;
 7C16   :   C8;
 7C17   :   C0;
 7C18   :   14;
 7C19   :   D0;
 7C1A   :   9E;
 7C1B   :   4C;
 7C1C   :   6E;
 7C1D   :   81;
 7C1E   :   60;
 7C1F   :   D8;
 7C20   :    0;
 7C21   :    2;
 7C22   :   78;
 7C23   :   D8;
 7C24   :    0;
 7C25   :    2;
 7C26   :   80;
 7C27   :   D4;
 7C28   :   34;
 7C29   :    0;
 7C2A   :   29;
 7C2B   :   DD;
 7C2C   :   51;
 7C2D   :    0;
 7C2E   :   26;
 7C2F   :   DD;
 7C30   :   BC;
 7C31   :    0;
 7C32   :   2A;
 7C33   :   D4;
 7C34   :   34;
 7C35   :    1;
 7C36   :   D0;
 7C37   :   DD;
 7C38   :   51;
 7C39   :   41;
 7C3A   :   D1;
 7C3B   :   DD;
 7C3C   :   BC;
 7C3D   :   41;
 7C3E   :   CD;
 7C3F   :    0;
 7C40   :    1;
 7C41   :    2;
 7C42   :    1;
 7C43   :    0;
 7C44   :   FF;
 7C45   :   FE;
 7C46   :   FF;
 7C47   :    0;
 7C48   :    0;
 7C49   :    1;
 7C4A   :    2;
 7C4B   :    2;
 7C4C   :    2;
 7C4D   :    1;
 7C4E   :    0;
 7C4F   :   FC;
 7C50   :   F3;
 7C51   :   F0;
 7C52   :   FA;
 7C53   :   F3;
 7C54   :    0;
 7C55   :   F3;
 7C56   :    3;
 7C57   :   FD;
 7C58   :    6;
 7C59   :   F1;
 7C5A   :   FA;
 7C5B   :   F7;
 7C5C   :   FE;
 7C5D   :   FA;
 7C5E   :    0;
 7C5F   :   FD;
 7C60   :    5;
 7C61   :    9;
 7C62   :   FA;
 7C63   :    8;
 7C64   :    0;
 7C65   :    6;
 7C66   :    4;
 7C67   :    8;
 7C68   :   FA;
 7C69   :    2;
 7C6A   :   FE;
 7C6B   :    0;
 7C6C   :    0;
 7C6D   :   FC;
 7C6E   :   F0;
 7C6F   :    0;
 7C70   :   FC;
 7C71   :   9B;
 7C72   :   C2;
 7C73   :   9D;
 7C74   :   C2;
 7C75   :   F8;
 7C76   :   FC;
 7C77   :   9E;
 7C78   :   42;
 7C79   :   9F;
 7C7A   :   42;
 7C7B   :   F8;
 7C7C   :    0;
 7C7D   :   9A;
 7C7E   :    2;
 7C7F   :   9C;
 7C80   :   42;
 7C81   :   F8;
 7C82   :    4;
 7C83   :   9E;
 7C84   :    2;
 7C85   :   A1;
 7C86   :   42;
 7C87   :    0;
 7C88   :    4;
 7C89   :   9B;
 7C8A   :    2;
 7C8B   :   9D;
 7C8C   :    2;
 7C8D   :    8;
 7C8E   :   FC;
 7C8F   :   9E;
 7C90   :    2;
 7C91   :   9F;
 7C92   :    2;
 7C93   :    8;
 7C94   :    0;
 7C95   :   9A;
 7C96   :    2;
 7C97   :   9C;
 7C98   :    2;
 7C99   :    8;
 7C9A   :    4;
 7C9B   :   A0;
 7C9C   :    2;
 7C9D   :   A1;
 7C9E   :    2;
 7C9F   :   46;
 7CA0   :   46;
 7CA1   :   6E;
 7CA2   :   A0;
 7CA3   :   D2;
 7CA4   :   FF;
 7CA5   :   FF;
 7CA6   :   B9;
 7CA7   :   6F;
 7CA8   :   FC;
 7CA9   :   F0;
 7CAA   :    A;
 7CAB   :   C9;
 7CAC   :   80;
 7CAD   :   A5;
 7CAE   :    A;
 7CAF   :   90;
 7CB0   :    4;
 7CB1   :   E9;
 7CB2   :    1;
 7CB3   :   49;
 7CB4   :   FF;
 7CB5   :   C8;
 7CB6   :   46;
 7CB7   :    A;
 7CB8   :   18;
 7CB9   :   60;
 7CBA   :   9D;
 7CBB   :    1;
 7CBC   :    2;
 7CBD   :   B9;
 7CBE   :   5D;
 7CBF   :   95;
 7CC0   :   18;
 7CC1   :   65;
 7CC2   :   75;
 7CC3   :   9D;
 7CC4   :    3;
 7CC5   :    2;
 7CC6   :   B9;
 7CC7   :   5E;
 7CC8   :   95;
 7CC9   :   18;
 7CCA   :   65;
 7CCB   :   5C;
 7CCC   :   9D;
 7CCD   :    0;
 7CCE   :    2;
 7CCF   :   E8;
 7CD0   :   E8;
 7CD1   :   E8;
 7CD2   :   E8;
 7CD3   :   A4;
 7CD4   :    5;
 7CD5   :   60;
 7CD6   :   59;
 7CD7   :   5A;
 7CD8   :   E1;
 7CD9   :   5A;
 7CDA   :    0;
 7CDB   :    0;
 7CDC   :    0;
 7CDD   :   40;
 7CDE   :   B9;
 7CDF   :   B3;
 7CE0   :    5;
 7CE1   :   4A;
 7CE2   :   4A;
 7CE3   :   29;
 7CE4   :   10;
 7CE5   :   19;
 7CE6   :   AF;
 7CE7   :    4;
 7CE8   :   85;
 7CE9   :    9;
 7CEA   :   A8;
 7CEB   :   B9;
 7CEC   :   45;
 7CED   :   95;
 7CEE   :   A8;
 7CEF   :   60;
 7CF0   :   4C;
 7CF1   :   4E;
 7CF2   :   FE;
 7CF3   :   B9;
 7CF4   :   B7;
 7CF5   :    3;
 7CF6   :   85;
 7CF7   :   75;
 7CF8   :   B9;
 7CF9   :   CB;
 7CFA   :    3;
 7CFB   :   38;
 7CFC   :   F9;
 7CFD   :   77;
 7CFE   :    5;
 7CFF   :   90;
 7D00   :   EE;
 7D01   :   85;
 7D02   :   5C;
 7D03   :   C0;
 7D04   :    2;
 7D05   :   90;
 7D06   :    3;
 7D07   :   4C;
 7D08   :   60;
 7D09   :   FE;
 7D0A   :   B9;
 7D0B   :    D;
 7D0C   :    4;
 7D0D   :   F0;
 7D0E   :    6;
 7D0F   :   A5;
 7D10   :    2;
 7D11   :   29;
 7D12   :    1;
 7D13   :   D0;
 7D14   :   C0;
 7D15   :   84;
 7D16   :    5;
 7D17   :   B9;
 7D18   :    7;
 7D19   :    4;
 7D1A   :   F0;
 7D1B   :   12;
 7D1C   :   4A;
 7D1D   :   29;
 7D1E   :    3;
 7D1F   :   A8;
 7D20   :   B9;
 7D21   :   DA;
 7D22   :   FC;
 7D23   :   9D;
 7D24   :    2;
 7D25   :    2;
 7D26   :   B9;
 7D27   :   D6;
 7D28   :   FC;
 7D29   :   A0;
 7D2A   :   20;
 7D2B   :   20;
 7D2C   :   BA;
 7D2D   :   FC;
 7D2E   :   B9;
 7D2F   :   1F;
 7D30   :    4;
 7D31   :   C9;
 7D32   :   80;
 7D33   :   29;
 7D34   :   7F;
 7D35   :   F0;
 7D36   :   B9;
 7D37   :   85;
 7D38   :    8;
 7D39   :   B9;
 7D3A   :   FF;
 7D3B   :    3;
 7D3C   :   19;
 7D3D   :    9;
 7D3E   :    4;
 7D3F   :   19;
 7D40   :   8D;
 7D41   :    4;
 7D42   :   19;
 7D43   :   29;
 7D44   :    4;
 7D45   :   D0;
 7D46   :   A9;
 7D47   :   B9;
 7D48   :   B3;
 7D49   :    5;
 7D4A   :   29;
 7D4B   :   20;
 7D4C   :   85;
 7D4D   :   8F;
 7D4E   :   B9;
 7D4F   :   93;
 7D50   :    4;
 7D51   :   85;
 7D52   :   88;
 7D53   :   B9;
 7D54   :   99;
 7D55   :    4;
 7D56   :   49;
 7D57   :    1;
 7D58   :   F0;
 7D59   :    F;
 7D5A   :   B9;
 7D5B   :   21;
 7D5C   :    4;
 7D5D   :   90;
 7D5E   :    4;
 7D5F   :   E9;
 7D60   :    1;
 7D61   :   49;
 7D62   :   FF;
 7D63   :   2A;
 7D64   :   2A;
 7D65   :   2A;
 7D66   :   2A;
 7D67   :   29;
 7D68   :    6;
 7D69   :   85;
 7D6A   :    A;
 7D6B   :   F0;
 7D6C   :    2;
 7D6D   :   E6;
 7D6E   :    8;
 7D6F   :   20;
 7D70   :   DE;
 7D71   :   FC;
 7D72   :   B9;
 7D73   :   4F;
 7D74   :   FC;
 7D75   :   85;
 7D76   :   83;
 7D77   :   B9;
 7D78   :   50;
 7D79   :   FC;
 7D7A   :   85;
 7D7B   :   84;
 7D7C   :   A5;
 7D7D   :    9;
 7D7E   :   C9;
 7D7F   :    A;
 7D80   :   90;
 7D81   :    2;
 7D82   :   E9;
 7D83   :    8;
 7D84   :   29;
 7D85   :   FE;
 7D86   :   85;
 7D87   :    9;
 7D88   :    A;
 7D89   :   65;
 7D8A   :    9;
 7D8B   :   A8;
 7D8C   :   A5;
 7D8D   :    8;
 7D8E   :   C9;
 7D8F   :    1;
 7D90   :   D0;
 7D91   :   1D;
 7D92   :   20;
 7D93   :   A6;
 7D94   :   FC;
 7D95   :   65;
 7D96   :   83;
 7D97   :   85;
 7D98   :   83;
 7D99   :   20;
 7D9A   :   A6;
 7D9B   :   FC;
 7D9C   :   65;
 7D9D   :   84;
 7D9E   :   85;
 7D9F   :   84;
 7DA0   :   A5;
 7DA1   :   88;
 7DA2   :   10;
 7DA3   :    B;
 7DA4   :   29;
 7DA5   :    3;
 7DA6   :    5;
 7DA7   :   8F;
 7DA8   :   9D;
 7DA9   :    2;
 7DAA   :    2;
 7DAB   :   A9;
 7DAC   :    0;
 7DAD   :   F0;
 7DAE   :    B;
 7DAF   :   B9;
 7DB0   :   72;
 7DB1   :   FC;
 7DB2   :    5;
 7DB3   :   8F;
 7DB4   :   9D;
 7DB5   :    2;
 7DB6   :    2;
 7DB7   :   B9;
 7DB8   :   71;
 7DB9   :   FC;
 7DBA   :   9D;
 7DBB   :    1;
 7DBC   :    2;
 7DBD   :   A5;
 7DBE   :   83;
 7DBF   :   18;
 7DC0   :   65;
 7DC1   :   75;
 7DC2   :   9D;
 7DC3   :    3;
 7DC4   :    2;
 7DC5   :   A5;
 7DC6   :   84;
 7DC7   :   18;
 7DC8   :   65;
 7DC9   :   5C;
 7DCA   :   9D;
 7DCB   :    0;
 7DCC   :    2;
 7DCD   :   A5;
 7DCE   :    A;
 7DCF   :   29;
 7DD0   :    6;
 7DD1   :   F0;
 7DD2   :    6;
 7DD3   :   A5;
 7DD4   :    8;
 7DD5   :   C9;
 7DD6   :    2;
 7DD7   :   F0;
 7DD8   :   10;
 7DD9   :   A5;
 7DDA   :   83;
 7DDB   :   18;
 7DDC   :   79;
 7DDD   :   6F;
 7DDE   :   FC;
 7DDF   :   85;
 7DE0   :   83;
 7DE1   :   A5;
 7DE2   :   84;
 7DE3   :   18;
 7DE4   :   79;
 7DE5   :   70;
 7DE6   :   FC;
 7DE7   :   85;
 7DE8   :   84;
 7DE9   :   E8;
 7DEA   :   E8;
 7DEB   :   E8;
 7DEC   :   E8;
 7DED   :   C6;
 7DEE   :    8;
 7DEF   :   D0;
 7DF0   :   9B;
 7DF1   :   A4;
 7DF2   :    5;
 7DF3   :   BD;
 7DF4   :   FF;
 7DF5   :    1;
 7DF6   :   99;
 7DF7   :   8F;
 7DF8   :    4;
 7DF9   :   BD;
 7DFA   :   FC;
 7DFB   :    1;
 7DFC   :   99;
 7DFD   :   91;
 7DFE   :    4;
 7DFF   :   B9;
 7E00   :   99;
 7E01   :    4;
 7E02   :   A8;
 7E03   :   B9;
 7E04   :   9E;
 7E05   :   FC;
 7E06   :   A4;
 7E07   :    5;
 7E08   :   18;
 7E09   :   79;
 7E0A   :   21;
 7E0B   :    4;
 7E0C   :   99;
 7E0D   :   21;
 7E0E   :    4;
 7E0F   :   90;
 7E10   :   3D;
 7E11   :   B9;
 7E12   :   1F;
 7E13   :    4;
 7E14   :   18;
 7E15   :   69;
 7E16   :    1;
 7E17   :   30;
 7E18   :    7;
 7E19   :   D9;
 7E1A   :   99;
 7E1B   :    4;
 7E1C   :   90;
 7E1D   :   2D;
 7E1E   :    9;
 7E1F   :   80;
 7E20   :   E9;
 7E21   :    1;
 7E22   :   C9;
 7E23   :   80;
 7E24   :   D0;
 7E25   :   25;
 7E26   :   B9;
 7E27   :   93;
 7E28   :    4;
 7E29   :   10;
 7E2A   :   1B;
 7E2B   :    9;
 7E2C   :    4;
 7E2D   :   99;
 7E2E   :   85;
 7E2F   :    4;
 7E30   :   B9;
 7E31   :   B3;
 7E32   :    5;
 7E33   :   4A;
 7E34   :   4A;
 7E35   :   29;
 7E36   :   10;
 7E37   :   19;
 7E38   :   AF;
 7E39   :    4;
 7E3A   :   4A;
 7E3B   :   A8;
 7E3C   :   B9;
 7E3D   :   15;
 7E3E   :   95;
 7E3F   :   A4;
 7E40   :    5;
 7E41   :    9;
 7E42   :    C;
 7E43   :   99;
 7E44   :   65;
 7E45   :    0;
 7E46   :   A9;
 7E47   :    0;
 7E48   :   99;
 7E49   :   93;
 7E4A   :    4;
 7E4B   :   99;
 7E4C   :   1F;
 7E4D   :    4;
 7E4E   :   B9;
 7E4F   :   85;
 7E50   :    4;
 7E51   :   10;
 7E52   :    D;
 7E53   :   29;
 7E54   :    3;
 7E55   :   9D;
 7E56   :    2;
 7E57   :    2;
 7E58   :   20;
 7E59   :   DE;
 7E5A   :   FC;
 7E5B   :   A9;
 7E5C   :    0;
 7E5D   :   20;
 7E5E   :   BA;
 7E5F   :   FC;
 7E60   :   B9;
 7E61   :   AF;
 7E62   :    4;
 7E63   :   C9;
 7E64   :   31;
 7E65   :   F0;
 7E66   :   3B;
 7E67   :   85;
 7E68   :   57;
 7E69   :   B9;
 7E6A   :   B3;
 7E6B   :    5;
 7E6C   :   29;
 7E6D   :   63;
 7E6E   :   85;
 7E6F   :    A;
 7E70   :   29;
 7E71   :   40;
 7E72   :   85;
 7E73   :   5E;
 7E74   :   A4;
 7E75   :   57;
 7E76   :   B9;
 7E77   :   E7;
 7E78   :   F3;
 7E79   :   85;
 7E7A   :    8;
 7E7B   :   B9;
 7E7C   :   82;
 7E7D   :   F4;
 7E7E   :   85;
 7E7F   :    9;
 7E80   :   A0;
 7E81   :    0;
 7E82   :   A5;
 7E83   :   5E;
 7E84   :   F0;
 7E85   :    B;
 7E86   :   B1;
 7E87   :    8;
 7E88   :   18;
 7E89   :   65;
 7E8A   :   75;
 7E8B   :   38;
 7E8C   :   E9;
 7E8D   :    7;
 7E8E   :   4C;
 7E8F   :   96;
 7E90   :   FE;
 7E91   :   A5;
 7E92   :   75;
 7E93   :   38;
 7E94   :   F1;
 7E95   :    8;
 7E96   :   85;
 7E97   :   5B;
 7E98   :   45;
 7E99   :   75;
 7E9A   :   10;
 7E9B   :    7;
 7E9C   :   A5;
 7E9D   :   75;
 7E9E   :   E9;
 7E9F   :   40;
 7EA0   :   10;
 7EA1   :    1;
 7EA2   :   60;
 7EA3   :   C8;
 7EA4   :   A5;
 7EA5   :   5C;
 7EA6   :   18;
 7EA7   :   71;
 7EA8   :    8;
 7EA9   :   B0;
 7EAA   :   F7;
 7EAB   :   85;
 7EAC   :   5C;
 7EAD   :   C8;
 7EAE   :   B1;
 7EAF   :    8;
 7EB0   :   45;
 7EB1   :    A;
 7EB2   :   85;
 7EB3   :   5D;
 7EB4   :   C8;
 7EB5   :   B1;
 7EB6   :    8;
 7EB7   :   10;
 7EB8   :   10;
 7EB9   :   29;
 7EBA   :   7F;
 7EBB   :   85;
 7EBC   :   5F;
 7EBD   :   C8;
 7EBE   :   B1;
 7EBF   :    8;
 7EC0   :   85;
 7EC1   :   60;
 7EC2   :   C8;
 7EC3   :   A5;
 7EC4   :   5E;
 7EC5   :   D0;
 7EC6   :   5B;
 7EC7   :   F0;
 7EC8   :   14;
 7EC9   :   F0;
 7ECA   :   51;
 7ECB   :   85;
 7ECC   :   5F;
 7ECD   :   C8;
 7ECE   :   A9;
 7ECF   :    0;
 7ED0   :   85;
 7ED1   :   60;
 7ED2   :   A5;
 7ED3   :   5E;
 7ED4   :   D0;
 7ED5   :   54;
 7ED6   :   F0;
 7ED7   :    D;
 7ED8   :   C8;
 7ED9   :   C6;
 7EDA   :   5F;
 7EDB   :   F0;
 7EDC   :   3F;
 7EDD   :   A5;
 7EDE   :   60;
 7EDF   :   F0;
 7EE0   :    4;
 7EE1   :   E6;
 7EE2   :   60;
 7EE3   :   D0;
 7EE4   :    3;
 7EE5   :   B1;
 7EE6   :    8;
 7EE7   :   C8;
 7EE8   :   9D;
 7EE9   :    1;
 7EEA   :    2;
 7EEB   :   B1;
 7EEC   :    8;
 7EED   :   18;
 7EEE   :   65;
 7EEF   :   5B;
 7EF0   :   B0;
 7EF1   :   22;
 7EF2   :   9D;
 7EF3   :    3;
 7EF4   :    2;
 7EF5   :   C8;
 7EF6   :   A5;
 7EF7   :   5C;
 7EF8   :   38;
 7EF9   :   F1;
 7EFA   :    8;
 7EFB   :   90;
 7EFC   :   18;
 7EFD   :   9D;
 7EFE   :    0;
 7EFF   :    2;
 7F00   :   C8;
 7F01   :   A5;
 7F02   :   5D;
 7F03   :   10;
 7F04   :    5;
 7F05   :   B1;
 7F06   :    8;
 7F07   :   45;
 7F08   :    A;
 7F09   :   C8;
 7F0A   :   9D;
 7F0B   :    2;
 7F0C   :    2;
 7F0D   :   E8;
 7F0E   :   E8;
 7F0F   :   E8;
 7F10   :   E8;
 7F11   :   D0;
 7F12   :   C6;
 7F13   :   60;
 7F14   :   C8;
 7F15   :   C8;
 7F16   :   A5;
 7F17   :   5D;
 7F18   :   10;
 7F19   :   BF;
 7F1A   :   30;
 7F1B   :   BC;
 7F1C   :   60;
 7F1D   :   C8;
 7F1E   :   C6;
 7F1F   :   5F;
 7F20   :   F0;
 7F21   :   FA;
 7F22   :   A5;
 7F23   :   60;
 7F24   :   F0;
 7F25   :    4;
 7F26   :   E6;
 7F27   :   60;
 7F28   :   D0;
 7F29   :    3;
 7F2A   :   B1;
 7F2B   :    8;
 7F2C   :   C8;
 7F2D   :   9D;
 7F2E   :    1;
 7F2F   :    2;
 7F30   :   A5;
 7F31   :   5B;
 7F32   :   38;
 7F33   :   F1;
 7F34   :    8;
 7F35   :   90;
 7F36   :   22;
 7F37   :   9D;
 7F38   :    3;
 7F39   :    2;
 7F3A   :   C8;
 7F3B   :   A5;
 7F3C   :   5C;
 7F3D   :   38;
 7F3E   :   F1;
 7F3F   :    8;
 7F40   :   90;
 7F41   :   18;
 7F42   :   9D;
 7F43   :    0;
 7F44   :    2;
 7F45   :   C8;
 7F46   :   A5;
 7F47   :   5D;
 7F48   :   10;
 7F49   :    5;
 7F4A   :   B1;
 7F4B   :    8;
 7F4C   :   C8;
 7F4D   :   45;
 7F4E   :    A;
 7F4F   :   9D;
 7F50   :    2;
 7F51   :    2;
 7F52   :   E8;
 7F53   :   E8;
 7F54   :   E8;
 7F55   :   E8;
 7F56   :   D0;
 7F57   :   C6;
 7F58   :   60;
 7F59   :   C8;
 7F5A   :   C8;
 7F5B   :   A5;
 7F5C   :   5D;
 7F5D   :   10;
 7F5E   :   BF;
 7F5F   :   30;
 7F60   :   BC;
 7F61   :   86;
 7F62   :   4A;
 7F63   :   84;
 7F64   :   4B;
 7F65   :   20;
 7F66   :   3E;
 7F67   :   AC;
 7F68   :   A9;
 7F69   :   80;
 7F6A   :   85;
 7F6B   :   A4;
 7F6C   :   20;
 7F6D   :   4A;
 7F6E   :   D5;
 7F6F   :   20;
 7F70   :   E1;
 7F71   :   8B;
 7F72   :   A5;
 7F73   :   E2;
 7F74   :   20;
 7F75   :   C9;
 7F76   :   FF;
 7F77   :   20;
 7F78   :   9A;
 7F79   :   D6;
 7F7A   :   A4;
 7F7B   :   4B;
 7F7C   :   A6;
 7F7D   :   4A;
 7F7E   :   A5;
 7F7F   :   49;
 7F80   :   40;
 7F81   :   85;
 7F82   :   49;
 7F83   :   AD;
 7F84   :    2;
 7F85   :   20;
 7F86   :   A5;
 7F87   :    0;
 7F88   :   10;
 7F89   :   D7;
 7F8A   :   29;
 7F8B   :   7F;
 7F8C   :   8D;
 7F8D   :    0;
 7F8E   :   20;
 7F8F   :   A9;
 7F90   :    0;
 7F91   :   8D;
 7F92   :    1;
 7F93   :   20;
 7F94   :   8D;
 7F95   :    3;
 7F96   :   20;
 7F97   :   A9;
 7F98   :    2;
 7F99   :   8D;
 7F9A   :   14;
 7F9B   :   40;
 7F9C   :   E6;
 7F9D   :    2;
 7F9E   :   A5;
 7F9F   :    2;
 7FA0   :   29;
 7FA1   :    1;
 7FA2   :   F0;
 7FA3   :    2;
 7FA4   :   E6;
 7FA5   :    3;
 7FA6   :   A2;
 7FA7   :   FC;
 7FA8   :   9A;
 7FA9   :   6C;
 7FAA   :   10;
 7FAB   :    0;
 7FAC   :   FF;
 7FAD   :   FF;
 7FAE   :   CA;
 7FAF   :   D0;
 7FB0   :   FD;
 7FB1   :   88;
 7FB2   :   D0;
 7FB3   :   FA;
 7FB4   :   60;
 7FB5   :   8D;
 7FB6   :   FF;
 7FB7   :   9F;
 7FB8   :   4A;
 7FB9   :   8D;
 7FBA   :   FF;
 7FBB   :   9F;
 7FBC   :   4A;
 7FBD   :   8D;
 7FBE   :   FF;
 7FBF   :   9F;
 7FC0   :   4A;
 7FC1   :   8D;
 7FC2   :   FF;
 7FC3   :   9F;
 7FC4   :   4A;
 7FC5   :   8D;
 7FC6   :   FF;
 7FC7   :   9F;
 7FC8   :   60;
 7FC9   :   8D;
 7FCA   :   FF;
 7FCB   :   BF;
 7FCC   :   4A;
 7FCD   :   8D;
 7FCE   :   FF;
 7FCF   :   BF;
 7FD0   :   4A;
 7FD1   :   8D;
 7FD2   :   FF;
 7FD3   :   BF;
 7FD4   :   4A;
 7FD5   :   8D;
 7FD6   :   FF;
 7FD7   :   BF;
 7FD8   :   4A;
 7FD9   :   8D;
 7FDA   :   FF;
 7FDB   :   BF;
 7FDC   :   60;
 7FDD   :   8D;
 7FDE   :   FF;
 7FDF   :   DF;
 7FE0   :   4A;
 7FE1   :   8D;
 7FE2   :   FF;
 7FE3   :   DF;
 7FE4   :   4A;
 7FE5   :   8D;
 7FE6   :   FF;
 7FE7   :   DF;
 7FE8   :   4A;
 7FE9   :   8D;
 7FEA   :   FF;
 7FEB   :   DF;
 7FEC   :   4A;
 7FED   :   8D;
 7FEE   :   FF;
 7FEF   :   DF;
 7FF0   :   60;
 7FF1   :   78;
 7FF2   :   A9;
 7FF3   :   80;
 7FF4   :   8D;
 7FF5   :    0;
 7FF6   :   80;
 7FF7   :   4C;
 7FF8   :   51;
 7FF9   :   82;
 7FFA   :   81;
 7FFB   :   FF;
 7FFC   :   F1;
 7FFD   :   FF;
 7FFE   :   80;
 7FFF   :   FF;
END; 